661544
Actelion Java MolfileCreator 2.0

  0  0  0  0  0  0              0 V3000
M  V30 BEGIN CTAB
M  V30 COUNTS 30 32 0 0 0
M  V30 BEGIN ATOM
M  V30 1 O -4.0781 0.2395 1.7576 0
M  V30 2 C -2.934 1.077 1.9739 0
M  V30 3 C -3.6632 -1.1307 1.6571 0
M  V30 4 C -1.9286 0.9813 0.8155 0
M  V30 5 C -2.7019 -1.3485 0.4801 0
M  V30 6 N -1.5586 -0.421 0.5636 0
M  V30 7 C -0.4718 -0.7076 -0.2574 0
M  V30 8 N -0.564 -1.7528 -1.102 0
M  V30 9 C 0.6968 0.0274 -0.1949 0
M  V30 10 C 0.4877 -2.028 -1.885 0
M  V30 11 C 1.7313 -0.3333 -1.0432 0
M  V30 12 N 1.6455 -1.3661 -1.9098 0
M  V30 13 N 2.9466 0.4121 -1.0029 0
M  V30 14 N 3.1188 1.4902 -0.1862 0
M  V30 15 C 4.0773 0.1697 -1.7566 0
M  V30 16 C 4.3621 1.903 -0.4406 0
M  V30 17 C 5.0067 1.1195 -1.4098 0
M  V30 18 H -3.2904 2.1075 2.0697 0
M  V30 19 H -2.463 0.7995 2.9247 0
M  V30 20 H -3.1991 -1.4329 2.6038 0
M  V30 21 H -4.5617 -1.7406 1.5195 0
M  V30 22 H -2.384 1.3906 -0.0946 0
M  V30 23 H -1.0672 1.6036 1.0744 0
M  V30 24 H -2.3736 -2.3945 0.5056 0
M  V30 25 H -3.2372 -1.1707 -0.461 0
M  V30 26 H 0.819 0.8397 0.5079 0
M  V30 27 H 0.3847 -2.8693 -2.5614 0
M  V30 28 H 4.1072 -0.6504 -2.4599 0
M  V30 29 H 4.748 2.7623 0.0931 0
M  V30 30 H 6.0074 1.2289 -1.8026 0
M  V30 END ATOM
M  V30 BEGIN BOND
M  V30 1 1 1 2
M  V30 2 1 1 3
M  V30 3 1 2 4
M  V30 4 1 3 5
M  V30 5 1 4 6
M  V30 6 1 6 7
M  V30 7 2 7 8
M  V30 8 1 7 9
M  V30 9 1 8 10
M  V30 10 2 9 11
M  V30 11 2 10 12
M  V30 12 1 11 13
M  V30 13 1 13 14
M  V30 14 1 13 15
M  V30 15 2 14 16
M  V30 16 2 15 17
M  V30 17 1 5 6
M  V30 18 1 11 12
M  V30 19 1 16 17
M  V30 20 1 2 18
M  V30 21 1 2 19
M  V30 22 1 3 20
M  V30 23 1 3 21
M  V30 24 1 4 22
M  V30 25 1 4 23
M  V30 26 1 5 24
M  V30 27 1 5 25
M  V30 28 1 9 26
M  V30 29 1 10 27
M  V30 30 1 15 28
M  V30 31 1 16 29
M  V30 32 1 17 30
M  V30 END BOND
M  V30 END CTAB
M  END
>  <ID>
661544

>  <Stereo Isomer>
1

>  <Energy>
47.169

>  <Error>


$$$$
99980125
Actelion Java MolfileCreator 2.0

  0  0  0  0  0  0              0 V3000
M  V30 BEGIN CTAB
M  V30 COUNTS 31 33 0 0 0
M  V30 BEGIN ATOM
M  V30 1 N -0.1583 2.9317 -1.1877 0
M  V30 2 C 0.4604 2.7275 -0.0033 0
M  V30 3 C -0.5444 1.8249 -1.8287 0
M  V30 4 N 0.8947 3.8661 0.7368 0
M  V30 5 C 0.6892 1.4661 0.5165 0
M  V30 6 N -0.37 0.5666 -1.4066 0
M  V30 7 N 1.5555 3.7567 1.9239 0
M  V30 8 C 0.7256 5.1874 0.3769 0
M  V30 9 C 0.2593 0.3865 -0.2331 0
M  V30 10 C 1.7859 5.0188 2.2915 0
M  V30 11 C 1.2923 5.952 1.3673 0
M  V30 12 N 0.4708 -0.9046 0.2899 0
M  V30 13 C -0.1032 -2.1459 -0.0337 0
M  V30 14 C -1.2578 -2.2859 -0.8064 0
M  V30 15 C 0.4799 -3.3154 0.4747 0
M  V30 16 C -1.7974 -3.5498 -1.0834 0
M  V30 17 C -0.059 -4.5782 0.1973 0
M  V30 18 C -1.1921 -4.7085 -0.6015 0
M  V30 19 N -1.7496 -5.9504 -0.8419 0
M  V30 20 H -1.0475 1.955 -2.7808 0
M  V30 21 H 1.1759 1.324 1.4736 0
M  V30 22 H 0.2207 5.4501 -0.542 0
M  V30 23 H 2.307 5.2066 3.2222 0
M  V30 24 H 1.341 7.0306 1.4131 0
M  V30 25 H 1.3056 -0.9708 0.8569 0
M  V30 26 H -1.772 -1.4141 -1.199 0
M  V30 27 H 1.3681 -3.2606 1.0985 0
M  V30 28 H -2.7018 -3.6115 -1.6822 0
M  V30 29 H 0.4196 -5.4592 0.6152 0
M  V30 30 H -1.2612 -6.7894 -0.5628 0
M  V30 31 H -2.5218 -6.0402 -1.4878 0
M  V30 END ATOM
M  V30 BEGIN BOND
M  V30 1 2 1 2
M  V30 2 1 1 3
M  V30 3 1 2 4
M  V30 4 1 2 5
M  V30 5 2 3 6
M  V30 6 1 4 7
M  V30 7 1 4 8
M  V30 8 2 5 9
M  V30 9 2 7 10
M  V30 10 2 8 11
M  V30 11 1 9 12
M  V30 12 1 12 13
M  V30 13 2 13 14
M  V30 14 1 13 15
M  V30 15 1 14 16
M  V30 16 2 15 17
M  V30 17 2 16 18
M  V30 18 1 18 19
M  V30 19 1 6 9
M  V30 20 1 10 11
M  V30 21 1 17 18
M  V30 22 1 3 20
M  V30 23 1 5 21
M  V30 24 1 8 22
M  V30 25 1 10 23
M  V30 26 1 11 24
M  V30 27 1 12 25
M  V30 28 1 14 26
M  V30 29 1 15 27
M  V30 30 1 16 28
M  V30 31 1 17 29
M  V30 32 1 19 30
M  V30 33 1 19 31
M  V30 END BOND
M  V30 END CTAB
M  END
>  <ID>
99980125

>  <Stereo Isomer>
1

>  <Energy>
-6.0455

>  <Error>


$$$$
850309
Actelion Java MolfileCreator 2.0

  0  0  0  0  0  0              0 V3000
M  V30 BEGIN CTAB
M  V30 COUNTS 37 39 0 0 0
M  V30 BEGIN ATOM
M  V30 1 O -2.1437 1.4287 -1.4287 0
M  V30 2 C -0.7676 1.5124 -1.4994 0
M  V30 3 C -2.661 0.1771 -1.1823 0
M  V30 4 N -0.2783 1.9812 -2.6599 0
M  V30 5 C 0.0092 1.2025 -0.4054 0
M  V30 6 C -2.2502 -0.9603 -1.8798 0
M  V30 7 C -3.6763 0.0872 -0.231 0
M  V30 8 C 1.0499 2.1033 -2.7145 0
M  V30 9 C 1.3715 1.3644 -0.5699 0
M  V30 10 C -2.8342 -2.1969 -1.596 0
M  V30 11 C -4.2586 -1.1497 0.0514 0
M  V30 12 N 1.9106 1.8126 -1.7295 0
M  V30 13 N 2.2363 1.0495 0.5307 0
M  V30 14 C -3.8479 -2.2999 -0.6344 0
M  V30 15 N 1.7144 0.6092 1.7132 0
M  V30 16 C 3.6234 1.1245 0.5953 0
M  V30 17 C -4.4505 -3.6346 -0.3072 0
M  V30 18 C 2.7653 0.4099 2.5113 0
M  V30 19 C 3.9753 0.7155 1.865 0
M  V30 20 C 4.5001 1.5662 -0.5182 0
M  V30 21 C 2.5664 -0.0775 3.8971 0
M  V30 22 H -0.4354 0.8572 0.5187 0
M  V30 23 H -1.4869 -0.8944 -2.6505 0
M  V30 24 H -4.0099 0.9767 0.2959 0
M  V30 25 H 1.4713 2.4731 -3.6432 0
M  V30 26 H -2.4984 -3.0791 -2.1368 0
M  V30 27 H -5.0386 -1.2096 0.8073 0
M  V30 28 H -4.4528 -4.2881 -1.186 0
M  V30 29 H -3.8788 -4.1171 0.4913 0
M  V30 30 H -5.4904 -3.5247 0.0176 0
M  V30 31 H 4.9769 0.6483 2.2673 0
M  V30 32 H 4.3917 0.9115 -1.3884 0
M  V30 33 H 4.2796 2.5982 -0.8077 0
M  V30 34 H 5.5525 1.532 -0.2157 0
M  V30 35 H 1.9517 0.6261 4.4674 0
M  V30 36 H 3.5231 -0.1902 4.4174 0
M  V30 37 H 2.0663 -1.0514 3.8935 0
M  V30 END ATOM
M  V30 BEGIN BOND
M  V30 1 1 1 2
M  V30 2 1 1 3
M  V30 3 2 2 4
M  V30 4 1 2 5
M  V30 5 2 3 6
M  V30 6 1 3 7
M  V30 7 1 4 8
M  V30 8 2 5 9
M  V30 9 1 6 10
M  V30 10 2 7 11
M  V30 11 2 8 12
M  V30 12 1 9 13
M  V30 13 2 10 14
M  V30 14 1 13 15
M  V30 15 1 13 16
M  V30 16 1 14 17
M  V30 17 2 15 18
M  V30 18 2 16 19
M  V30 19 1 16 20
M  V30 20 1 18 21
M  V30 21 1 9 12
M  V30 22 1 11 14
M  V30 23 1 18 19
M  V30 24 1 5 22
M  V30 25 1 6 23
M  V30 26 1 7 24
M  V30 27 1 8 25
M  V30 28 1 10 26
M  V30 29 1 11 27
M  V30 30 1 17 28
M  V30 31 1 17 29
M  V30 32 1 17 30
M  V30 33 1 19 31
M  V30 34 1 20 32
M  V30 35 1 20 33
M  V30 36 1 20 34
M  V30 37 1 21 35
M  V30 38 1 21 36
M  V30 39 1 21 37
M  V30 END BOND
M  V30 END CTAB
M  END
>  <ID>
850309

>  <Stereo Isomer>
1

>  <Energy>
38.286

>  <Error>


$$$$
1871516
Actelion Java MolfileCreator 2.0

  0  0  0  0  0  0              0 V3000
M  V30 BEGIN CTAB
M  V30 COUNTS 35 36 0 0 0
M  V30 BEGIN ATOM
M  V30 1 O 3.0572 -3.7638 -1.8805 0
M  V30 2 C 3.4327 -2.6122 -2.6348 0
M  V30 3 C 2.228 -1.6808 -2.8241 0
M  V30 4 N 1.7548 -1.2181 -1.535 0
M  V30 5 C 0.7797 -0.2836 -1.3221 0
M  V30 6 N 0.3271 -0.2211 -0.0625 0
M  V30 7 C 0.2968 0.5554 -2.302 0
M  V30 8 C -0.6307 0.6864 0.2257 0
M  V30 9 C -0.6803 1.4598 -1.9382 0
M  V30 10 N -1.1535 1.5373 -0.6841 0
M  V30 11 N -1.1259 0.7555 1.5831 0
M  V30 12 C -1.2548 2.4042 -2.9499 0
M  V30 13 N -2.071 1.682 1.9398 0
M  V30 14 C -0.7701 -0.0304 2.6803 0
M  V30 15 C -2.2981 1.4775 3.2378 0
M  V30 16 C -1.5165 0.4263 3.7467 0
M  V30 17 C 0.2241 -1.1321 2.6417 0
M  V30 18 C -3.2821 2.3189 3.9598 0
M  V30 19 H 3.8593 -4.3015 -1.7632 0
M  V30 20 H 3.8071 -2.9448 -3.6079 0
M  V30 21 H 4.2381 -2.0987 -2.099 0
M  V30 22 H 2.5398 -0.8369 -3.449 0
M  V30 23 H 1.4205 -2.2205 -3.3315 0
M  V30 24 H 1.9452 -1.8086 -0.7312 0
M  V30 25 H 0.6601 0.5194 -3.319 0
M  V30 26 H -0.4675 3.0449 -3.3595 0
M  V30 27 H -2.0155 3.0475 -2.4959 0
M  V30 28 H -1.7244 1.8453 -3.7654 0
M  V30 29 H -1.497 0.0459 4.7586 0
M  V30 30 H 1.2164 -0.7583 2.371 0
M  V30 31 H 0.3132 -1.6035 3.6268 0
M  V30 32 H -0.0777 -1.9122 1.9361 0
M  V30 33 H -3.3528 2.0282 5.0129 0
M  V30 34 H -4.2765 2.2164 3.5131 0
M  V30 35 H -2.9898 3.3731 3.9187 0
M  V30 END ATOM
M  V30 BEGIN BOND
M  V30 1 1 1 2
M  V30 2 1 2 3
M  V30 3 1 3 4
M  V30 4 1 4 5
M  V30 5 2 5 6
M  V30 6 1 5 7
M  V30 7 1 6 8
M  V30 8 2 7 9
M  V30 9 2 8 10
M  V30 10 1 8 11
M  V30 11 1 9 12
M  V30 12 1 11 13
M  V30 13 1 11 14
M  V30 14 2 13 15
M  V30 15 2 14 16
M  V30 16 1 14 17
M  V30 17 1 15 18
M  V30 18 1 9 10
M  V30 19 1 15 16
M  V30 20 1 1 19
M  V30 21 1 2 20
M  V30 22 1 2 21
M  V30 23 1 3 22
M  V30 24 1 3 23
M  V30 25 1 4 24
M  V30 26 1 7 25
M  V30 27 1 12 26
M  V30 28 1 12 27
M  V30 29 1 12 28
M  V30 30 1 16 29
M  V30 31 1 17 30
M  V30 32 1 17 31
M  V30 33 1 17 32
M  V30 34 1 18 33
M  V30 35 1 18 34
M  V30 36 1 18 35
M  V30 END BOND
M  V30 END CTAB
M  END
>  <ID>
1871516

>  <Stereo Isomer>
1

>  <Energy>
47.942

>  <Error>


$$$$
662572
Actelion Java MolfileCreator 2.0

  0  0  0  0  0  0              0 V3000
M  V30 BEGIN CTAB
M  V30 COUNTS 42 44 0 0 0
M  V30 BEGIN ATOM
M  V30 1 O 5.3782 -3.794 -1.2634 0
M  V30 2 C 4.1496 -3.2055 -1.1547 0
M  V30 3 C 5.4163 -5.1022 -1.8199 0
M  V30 4 C 2.9318 -3.7689 -1.525 0
M  V30 5 C 4.1621 -1.918 -0.6186 0
M  V30 6 C 1.7435 -3.0456 -1.3559 0
M  V30 7 C 2.9724 -1.2001 -0.4492 0
M  V30 8 C 1.7435 -1.751 -0.8178 0
M  V30 9 N 0.5175 -1.1015 -0.637 0
M  V30 10 C 0.0539 -0.106 0.2192 0
M  V30 11 N -1.1003 0.4665 -0.1515 0
M  V30 12 C 0.6887 0.2516 1.3883 0
M  V30 13 C -1.614 1.4386 0.6338 0
M  V30 14 C 0.1073 1.2485 2.145 0
M  V30 15 N -1.036 1.8556 1.7805 0
M  V30 16 N -2.8533 2.0572 0.2176 0
M  V30 17 C 0.7396 1.6844 3.4322 0
M  V30 18 N -3.4932 1.6449 -0.9213 0
M  V30 19 C -3.5629 3.0867 0.8363 0
M  V30 20 C -4.5842 2.4064 -1.0114 0
M  V30 21 C -4.6756 3.3176 0.0543 0
M  V30 22 C -3.1473 3.763 2.0907 0
M  V30 23 C -5.5222 2.2278 -2.1451 0
M  V30 24 H 4.8627 -5.8123 -1.1967 0
M  V30 25 H 6.4616 -5.425 -1.8437 0
M  V30 26 H 5.0436 -5.1046 -2.8495 0
M  V30 27 H 2.8646 -4.7669 -1.944 0
M  V30 28 H 5.1083 -1.4627 -0.3367 0
M  V30 29 H 0.8031 -3.5136 -1.6399 0
M  V30 30 H 3.0364 -0.1866 -0.066 0
M  V30 31 H -0.1798 -1.2813 -1.3522 0
M  V30 32 H 1.5867 -0.2452 1.7273 0
M  V30 33 H 1.7541 2.0524 3.2502 0
M  V30 34 H 0.7809 0.8472 4.1361 0
M  V30 35 H 0.163 2.4915 3.8957 0
M  V30 36 H -5.4502 4.0505 0.2338 0
M  V30 37 H -2.1729 4.2472 1.9738 0
M  V30 38 H -3.8665 4.5436 2.3626 0
M  V30 39 H -3.1062 3.0559 2.9247 0
M  V30 40 H -6.3635 2.9247 -2.0751 0
M  V30 41 H -5.9256 1.21 -2.1534 0
M  V30 42 H -5.0127 2.407 -3.0973 0
M  V30 END ATOM
M  V30 BEGIN BOND
M  V30 1 1 1 2
M  V30 2 1 1 3
M  V30 3 2 2 4
M  V30 4 1 2 5
M  V30 5 1 4 6
M  V30 6 2 5 7
M  V30 7 2 6 8
M  V30 8 1 8 9
M  V30 9 1 9 10
M  V30 10 2 10 11
M  V30 11 1 10 12
M  V30 12 1 11 13
M  V30 13 2 12 14
M  V30 14 2 13 15
M  V30 15 1 13 16
M  V30 16 1 14 17
M  V30 17 1 16 18
M  V30 18 1 16 19
M  V30 19 2 18 20
M  V30 20 2 19 21
M  V30 21 1 19 22
M  V30 22 1 20 23
M  V30 23 1 7 8
M  V30 24 1 14 15
M  V30 25 1 20 21
M  V30 26 1 3 24
M  V30 27 1 3 25
M  V30 28 1 3 26
M  V30 29 1 4 27
M  V30 30 1 5 28
M  V30 31 1 6 29
M  V30 32 1 7 30
M  V30 33 1 9 31
M  V30 34 1 12 32
M  V30 35 1 17 33
M  V30 36 1 17 34
M  V30 37 1 17 35
M  V30 38 1 21 36
M  V30 39 1 22 37
M  V30 40 1 22 38
M  V30 41 1 22 39
M  V30 42 1 23 40
M  V30 43 1 23 41
M  V30 44 1 23 42
M  V30 END BOND
M  V30 END CTAB
M  END
>  <ID>
662572

>  <Stereo Isomer>
1

>  <Energy>
52.954

>  <Error>


$$$$
658411
Actelion Java MolfileCreator 2.0

  0  0  0  0  0  0              0 V3000
M  V30 BEGIN CTAB
M  V30 COUNTS 43 45 0 0 0
M  V30 BEGIN ATOM
M  V30 1 O -1.5907 1.5111 5.0972 0
M  V30 2 C -1.896 0.526 4.4437 0
M  V30 3 O -2.0873 -0.7235 4.9352 0
M  V30 4 C -2.1071 0.5505 2.9701 0
M  V30 5 C -1.9009 -0.8257 6.3475 0
M  V30 6 C -2.4544 -0.5965 2.2407 0
M  V30 7 C -1.9512 1.7744 2.301 0
M  V30 8 C -2.635 -0.5204 0.8572 0
M  V30 9 C -2.1323 1.8505 0.9185 0
M  V30 10 C -2.4539 0.6979 0.2034 0
M  V30 11 O -2.6641 0.7808 -1.1496 0
M  V30 12 C -1.5615 0.5124 -1.96 0
M  V30 13 N -0.365 0.2403 -1.4089 0
M  V30 14 C -1.7942 0.5544 -3.3145 0
M  V30 15 C 0.6472 -0.0035 -2.2633 0
M  V30 16 C -0.709 0.2924 -4.1181 0
M  V30 17 N 0.5066 0.0136 -3.6104 0
M  V30 18 N 1.9546 -0.3009 -1.7198 0
M  V30 19 C -0.8448 0.3092 -5.6103 0
M  V30 20 N 3.0044 -0.5995 -2.5466 0
M  V30 21 C 2.3542 -0.3372 -0.3834 0
M  V30 22 C 4.0424 -0.8194 -1.739 0
M  V30 23 C 3.6928 -0.6701 -0.386 0
M  V30 24 C 1.4657 -0.0587 0.7726 0
M  V30 25 C 5.3642 -1.1727 -2.309 0
M  V30 26 H -2.0781 -1.8647 6.638 0
M  V30 27 H -0.8742 -0.5603 6.6189 0
M  V30 28 H -2.619 -0.191 6.8761 0
M  V30 29 H -2.5871 -1.5556 2.7349 0
M  V30 30 H -1.688 2.6734 2.8554 0
M  V30 31 H -2.9045 -1.4088 0.293 0
M  V30 32 H -2.0121 2.7994 0.4038 0
M  V30 33 H -2.7724 0.7796 -3.7162 0
M  V30 34 H 0.111 0.08 -6.0918 0
M  V30 35 H -1.1686 1.2981 -5.9497 0
M  V30 36 H -1.576 -0.4386 -5.932 0
M  V30 37 H 4.3309 -0.787 0.479 0
M  V30 38 H 0.6498 -0.7854 0.824 0
M  V30 39 H 2.0235 -0.1313 1.7126 0
M  V30 40 H 1.0544 0.9534 0.7186 0
M  V30 41 H 6.1081 -1.3198 -1.5194 0
M  V30 42 H 5.7237 -0.3763 -2.9685 0
M  V30 43 H 5.2976 -2.0994 -2.8879 0
M  V30 END ATOM
M  V30 BEGIN BOND
M  V30 1 2 1 2
M  V30 2 1 2 3
M  V30 3 1 2 4
M  V30 4 1 3 5
M  V30 5 2 4 6
M  V30 6 1 4 7
M  V30 7 1 6 8
M  V30 8 2 7 9
M  V30 9 2 8 10
M  V30 10 1 10 11
M  V30 11 1 11 12
M  V30 12 2 12 13
M  V30 13 1 12 14
M  V30 14 1 13 15
M  V30 15 2 14 16
M  V30 16 2 15 17
M  V30 17 1 15 18
M  V30 18 1 16 19
M  V30 19 1 18 20
M  V30 20 1 18 21
M  V30 21 2 20 22
M  V30 22 2 21 23
M  V30 23 1 21 24
M  V30 24 1 22 25
M  V30 25 1 9 10
M  V30 26 1 16 17
M  V30 27 1 22 23
M  V30 28 1 5 26
M  V30 29 1 5 27
M  V30 30 1 5 28
M  V30 31 1 6 29
M  V30 32 1 7 30
M  V30 33 1 8 31
M  V30 34 1 9 32
M  V30 35 1 14 33
M  V30 36 1 19 34
M  V30 37 1 19 35
M  V30 38 1 19 36
M  V30 39 1 23 37
M  V30 40 1 24 38
M  V30 41 1 24 39
M  V30 42 1 24 40
M  V30 43 1 25 41
M  V30 44 1 25 42
M  V30 45 1 25 43
M  V30 END BOND
M  V30 END CTAB
M  END
>  <ID>
658411

>  <Stereo Isomer>
1

>  <Energy>
93.208

>  <Error>


$$$$
662434
Actelion Java MolfileCreator 2.0

  0  0  0  0  0  0              0 V3000
M  V30 BEGIN CTAB
M  V30 COUNTS 47 49 0 0 0
M  V30 BEGIN ATOM
M  V30 1 O -3.2612 -0.3972 1.4307 0
M  V30 2 C -3.2618 -0.0302 0.2651 0
M  V30 3 O -4.3218 0.4668 -0.4165 0
M  V30 4 C -2.0628 -0.0685 -0.591 0
M  V30 5 C -5.5515 0.5689 0.3195 0
M  V30 6 C -0.7829 -0.1988 -0.059 0
M  V30 7 C -2.1531 -0.012 -1.9655 0
M  V30 8 C -5.6036 1.8874 1.0686 0
M  V30 9 N 0.3008 -0.2718 -0.8665 0
M  V30 10 N -0.5937 -0.2171 1.3389 0
M  V30 11 N -1.0895 -0.084 -2.787 0
M  V30 12 C 0.1207 -0.2212 -2.2055 0
M  V30 13 C 0.538 0.0188 2.1355 0
M  V30 14 N 1.2793 -0.3163 -3.0622 0
M  V30 15 C 0.5469 -0.4586 3.4556 0
M  V30 16 C 1.6726 0.6947 1.6732 0
M  V30 17 N 1.2197 0.0981 -4.3645 0
M  V30 18 C 2.5472 -0.8044 -2.7538 0
M  V30 19 C 1.6596 -0.2663 4.2879 0
M  V30 20 C 2.786 0.8924 2.4956 0
M  V30 21 C 2.4448 -0.098 -4.8544 0
M  V30 22 C 3.3084 -0.6548 -3.8945 0
M  V30 23 C 2.9329 -1.3788 -1.4405 0
M  V30 24 C 1.6919 -0.7642 5.6837 0
M  V30 25 C 2.7811 0.4111 3.8019 0
M  V30 26 C 2.7478 0.2568 -6.2613 0
M  V30 27 O 2.6179 -0.64 6.464 0
M  V30 28 O 0.5601 -1.3965 6.0411 0
M  V30 29 H -5.6807 -0.2828 0.9968 0
M  V30 30 H -6.3659 0.527 -0.4108 0
M  V30 31 H -3.1057 0.0844 -2.4797 0
M  V30 32 H -6.5601 2.0019 1.5862 0
M  V30 33 H -4.7971 1.9524 1.8059 0
M  V30 34 H -5.4723 2.7271 0.3782 0
M  V30 35 H -1.4174 -0.5387 1.851 0
M  V30 36 H -0.3209 -0.9919 3.8367 0
M  V30 37 H 1.701 1.0984 0.6647 0
M  V30 38 H 3.6532 1.425 2.1132 0
M  V30 39 H 4.3481 -0.9266 -4.0179 0
M  V30 40 H 2.21 -2.1271 -1.1016 0
M  V30 41 H 3.9052 -1.8788 -1.5116 0
M  V30 42 H 3.0253 -0.5928 -0.6867 0
M  V30 43 H 3.6501 0.5674 4.438 0
M  V30 44 H 3.795 0.0494 -6.5042 0
M  V30 45 H 2.5644 1.3217 -6.4371 0
M  V30 46 H 2.1201 -0.3211 -6.9471 0
M  V30 47 H 0.7248 -1.6634 6.9699 0
M  V30 END ATOM
M  V30 BEGIN BOND
M  V30 1 2 1 2
M  V30 2 1 2 3
M  V30 3 1 2 4
M  V30 4 1 3 5
M  V30 5 2 4 6
M  V30 6 1 4 7
M  V30 7 1 5 8
M  V30 8 1 6 9
M  V30 9 1 6 10
M  V30 10 2 7 11
M  V30 11 2 9 12
M  V30 12 1 10 13
M  V30 13 1 12 14
M  V30 14 2 13 15
M  V30 15 1 13 16
M  V30 16 1 14 17
M  V30 17 1 14 18
M  V30 18 1 15 19
M  V30 19 2 16 20
M  V30 20 2 17 21
M  V30 21 2 18 22
M  V30 22 1 18 23
M  V30 23 1 19 24
M  V30 24 2 19 25
M  V30 25 1 21 26
M  V30 26 2 24 27
M  V30 27 1 24 28
M  V30 28 1 11 12
M  V30 29 1 20 25
M  V30 30 1 21 22
M  V30 31 1 5 29
M  V30 32 1 5 30
M  V30 33 1 7 31
M  V30 34 1 8 32
M  V30 35 1 8 33
M  V30 36 1 8 34
M  V30 37 1 10 35
M  V30 38 1 15 36
M  V30 39 1 16 37
M  V30 40 1 20 38
M  V30 41 1 22 39
M  V30 42 1 23 40
M  V30 43 1 23 41
M  V30 44 1 23 42
M  V30 45 1 25 43
M  V30 46 1 26 44
M  V30 47 1 26 45
M  V30 48 1 26 46
M  V30 49 1 28 47
M  V30 END BOND
M  V30 END CTAB
M  END
>  <ID>
662434

>  <Stereo Isomer>
1

>  <Energy>
60.335

>  <Error>


$$$$
9802802
Actelion Java MolfileCreator 2.0

  0  0  0  0  0  0              0 V3000
M  V30 BEGIN CTAB
M  V30 COUNTS 51 54 0 0 0
M  V30 BEGIN ATOM
M  V30 1 Cl 3.9375 -3.7766 -7.4834 0
M  V30 2 C 2.9156 -2.5328 -6.8712 0
M  V30 3 C 2.4194 -2.6226 -5.5679 0
M  V30 4 C 2.5977 -1.446 -7.6766 0
M  V30 5 C 1.5852 -1.6286 -5.0314 0
M  V30 6 C 1.782 -0.4416 -7.168 0
M  V30 7 N 1.1068 -1.7325 -3.7288 0
M  V30 8 C 1.2882 -0.5344 -5.8606 0
M  V30 9 C 0.6242 -0.5386 -3.0142 0
M  V30 10 C 0.4363 -2.9861 -3.3337 0
M  V30 11 C 0.6019 -0.7723 -1.4861 0
M  V30 12 C 0.4155 -3.1461 -1.7965 0
M  V30 13 N -0.1663 -1.9784 -1.0954 0
M  V30 14 C -0.13 -2.1933 0.3559 0
M  V30 15 C -0.9614 -1.1764 1.0836 0
M  V30 16 C -0.4974 -0.3956 2.0745 0
M  V30 17 C -1.254 0.5829 2.7865 0
M  V30 18 C -0.8063 1.3519 3.8483 0
M  V30 19 C -2.5843 0.9849 2.5826 0
M  V30 20 N -1.881 2.1724 4.217 0
M  V30 21 C 0.5131 1.383 4.537 0
M  V30 22 N -2.9747 1.9311 3.4305 0
M  V30 23 C -1.9395 3.1723 5.2643 0
M  V30 24 N -3.1157 3.8134 5.4649 0
M  V30 25 N -0.8241 3.4236 5.9893 0
M  V30 26 C -3.1534 4.7406 6.4378 0
M  V30 27 C -0.9207 4.3623 6.9504 0
M  V30 28 C -2.0725 5.0595 7.2211 0
M  V30 29 H 2.7175 -3.4678 -4.9547 0
M  V30 30 H 2.9819 -1.3745 -8.6897 0
M  V30 31 H 1.5238 0.4154 -7.7842 0
M  V30 32 H 0.641 0.2648 -5.5103 0
M  V30 33 H -0.3844 -0.2817 -3.3613 0
M  V30 34 H 1.2817 0.3179 -3.2068 0
M  V30 35 H 0.9289 -3.8706 -3.7509 0
M  V30 36 H -0.5918 -2.9769 -3.7175 0
M  V30 37 H 0.1644 0.1203 -1.0246 0
M  V30 38 H 1.637 -0.8521 -1.1267 0
M  V30 39 H 1.4415 -3.3239 -1.4461 0
M  V30 40 H -0.1698 -4.043 -1.5602 0
M  V30 41 H 0.9016 -2.214 0.7295 0
M  V30 42 H -0.5688 -3.1722 0.5886 0
M  V30 43 H -1.9965 -1.1091 0.7594 0
M  V30 44 H 0.5461 -0.515 2.3554 0
M  V30 45 H -3.2953 0.6306 1.8477 0
M  V30 46 H 0.9906 2.3608 4.4193 0
M  V30 47 H 1.2045 0.641 4.1282 0
M  V30 48 H 0.4036 1.1556 5.6022 0
M  V30 49 H -4.1122 5.2337 6.5695 0
M  V30 50 H -0.0108 4.5429 7.5157 0
M  V30 51 H -2.1255 5.8089 7.9978 0
M  V30 END ATOM
M  V30 BEGIN BOND
M  V30 1 1 1 2
M  V30 2 2 2 3
M  V30 3 1 2 4
M  V30 4 1 3 5
M  V30 5 2 4 6
M  V30 6 1 5 7
M  V30 7 2 5 8
M  V30 8 1 7 9
M  V30 9 1 7 10
M  V30 10 1 9 11
M  V30 11 1 10 12
M  V30 12 1 11 13
M  V30 13 1 13 14
M  V30 14 1 14 15
M  V30 15 2 15 16
M  V30 16 1 16 17
M  V30 17 2 17 18
M  V30 18 1 17 19
M  V30 19 1 18 20
M  V30 20 1 18 21
M  V30 21 2 19 22
M  V30 22 1 20 23
M  V30 23 2 23 24
M  V30 24 1 23 25
M  V30 25 1 24 26
M  V30 26 2 25 27
M  V30 27 2 26 28
M  V30 28 1 6 8
M  V30 29 1 12 13
M  V30 30 1 20 22
M  V30 31 1 27 28
M  V30 32 1 3 29
M  V30 33 1 4 30
M  V30 34 1 6 31
M  V30 35 1 8 32
M  V30 36 1 9 33
M  V30 37 1 9 34
M  V30 38 1 10 35
M  V30 39 1 10 36
M  V30 40 1 11 37
M  V30 41 1 11 38
M  V30 42 1 12 39
M  V30 43 1 12 40
M  V30 44 1 14 41
M  V30 45 1 14 42
M  V30 46 1 15 43
M  V30 47 1 16 44
M  V30 48 1 19 45
M  V30 49 1 21 46
M  V30 50 1 21 47
M  V30 51 1 21 48
M  V30 52 1 26 49
M  V30 53 1 27 50
M  V30 54 1 28 51
M  V30 END BOND
M  V30 END CTAB
M  END
>  <ID>
9802802

>  <Stereo Isomer>
1

>  <Energy>
153.7

>  <Error>


$$$$
658308
Actelion Java MolfileCreator 2.0

  0  0  0  0  0  0              0 V3000
M  V30 BEGIN CTAB
M  V30 COUNTS 45 47 0 0 0
M  V30 BEGIN ATOM
M  V30 1 O -2.9989 0.9462 -5.2131 0
M  V30 2 C -2.4593 0.5399 -4.0266 0
M  V30 3 C -4.1318 0.2505 -5.7305 0
M  V30 4 C -1.4385 1.3588 -3.5432 0
M  V30 5 C -2.8177 -0.5871 -3.2941 0
M  V30 6 C -3.6977 -0.9081 -6.611 0
M  V30 7 C -0.7908 1.0655 -2.3375 0
M  V30 8 C -2.1649 -0.8797 -2.0885 0
M  V30 9 C -1.1421 -0.0604 -1.5911 0
M  V30 10 N -0.5589 -0.3871 -0.361 0
M  V30 11 C 0.0803 0.3456 0.6374 0
M  V30 12 N 0.8077 -0.3822 1.5016 0
M  V30 13 C -0.046 1.7117 0.7723 0
M  V30 14 C 1.4502 0.2702 2.4954 0
M  V30 15 C 0.6317 2.3105 1.8134 0
M  V30 16 N 1.3855 1.6073 2.6742 0
M  V30 17 N 2.2495 -0.5003 3.4229 0
M  V30 18 C 0.5369 3.7903 2.0296 0
M  V30 19 N 2.8698 0.1032 4.4841 0
M  V30 20 C 2.5129 -1.8708 3.4139 0
M  V30 21 C 3.5063 -0.8746 5.129 0
M  V30 22 C 3.3172 -2.1203 4.5067 0
M  V30 23 C 2.0022 -2.8229 2.3965 0
M  V30 24 C 4.293 -0.5702 6.3479 0
M  V30 25 H -4.6783 0.9694 -6.3516 0
M  V30 26 H -4.8309 -0.0582 -4.9456 0
M  V30 27 H -1.1371 2.2343 -4.1138 0
M  V30 28 H -3.595 -1.266 -3.6258 0
M  V30 29 H -4.5658 -1.3948 -7.0646 0
M  V30 30 H -3.0354 -0.5556 -7.4086 0
M  V30 31 H -3.1375 -1.6557 -6.042 0
M  V30 32 H 0.0211 1.7133 -2.0219 0
M  V30 33 H -2.4758 -1.7592 -1.5288 0
M  V30 34 H -0.451 -1.3797 -0.1876 0
M  V30 35 H -0.6765 2.2972 0.1178 0
M  V30 36 H 0.8949 4.3258 1.1447 0
M  V30 37 H 1.1469 4.0998 2.8844 0
M  V30 38 H -0.4999 4.0774 2.2289 0
M  V30 39 H 3.7158 -3.0786 4.8104 0
M  V30 40 H 2.3411 -2.5479 1.3928 0
M  V30 41 H 2.3718 -3.8346 2.5971 0
M  V30 42 H 0.909 -2.8683 2.4131 0
M  V30 43 H 4.7504 -1.4758 6.759 0
M  V30 44 H 3.6513 -0.1346 7.1206 0
M  V30 45 H 5.0942 0.1401 6.1207 0
M  V30 END ATOM
M  V30 BEGIN BOND
M  V30 1 1 1 2
M  V30 2 1 1 3
M  V30 3 2 2 4
M  V30 4 1 2 5
M  V30 5 1 3 6
M  V30 6 1 4 7
M  V30 7 2 5 8
M  V30 8 2 7 9
M  V30 9 1 9 10
M  V30 10 1 10 11
M  V30 11 2 11 12
M  V30 12 1 11 13
M  V30 13 1 12 14
M  V30 14 2 13 15
M  V30 15 2 14 16
M  V30 16 1 14 17
M  V30 17 1 15 18
M  V30 18 1 17 19
M  V30 19 1 17 20
M  V30 20 2 19 21
M  V30 21 2 20 22
M  V30 22 1 20 23
M  V30 23 1 21 24
M  V30 24 1 8 9
M  V30 25 1 15 16
M  V30 26 1 21 22
M  V30 27 1 3 25
M  V30 28 1 3 26
M  V30 29 1 4 27
M  V30 30 1 5 28
M  V30 31 1 6 29
M  V30 32 1 6 30
M  V30 33 1 6 31
M  V30 34 1 7 32
M  V30 35 1 8 33
M  V30 36 1 10 34
M  V30 37 1 13 35
M  V30 38 1 18 36
M  V30 39 1 18 37
M  V30 40 1 18 38
M  V30 41 1 22 39
M  V30 42 1 23 40
M  V30 43 1 23 41
M  V30 44 1 23 42
M  V30 45 1 24 43
M  V30 46 1 24 44
M  V30 47 1 24 45
M  V30 END BOND
M  V30 END CTAB
M  END
>  <ID>
658308

>  <Stereo Isomer>
1

>  <Energy>
53.839

>  <Error>


$$$$
3820260
Actelion Java MolfileCreator 2.0

  0  0  0  0  0  0              0 V3000
M  V30 BEGIN CTAB
M  V30 COUNTS 47 50 0 0 0
M  V30 BEGIN ATOM
M  V30 1 S -0.3282 0.1641 3.2862 0
M  V30 2 C -0.6734 0.1552 1.6186 0
M  V30 3 C 1.3416 0.1225 2.9961 0
M  V30 4 N -1.9476 0.1876 1.2107 0
M  V30 5 C 0.4592 0.1177 0.8179 0
M  V30 6 C 1.6469 0.0698 1.6484 0
M  V30 7 C 2.3294 0.1038 4.1153 0
M  V30 8 C -2.0994 0.1957 -0.1202 0
M  V30 9 C 0.1903 0.1374 -0.5611 0
M  V30 10 C 3.0894 0.0174 1.2286 0
M  V30 11 O 3.6401 0.3896 3.5993 0
M  V30 12 N -1.0835 0.1787 -1.0121 0
M  V30 13 N -3.4567 0.2141 -0.6238 0
M  V30 14 S 1.518 0.1228 -1.7327 0
M  V30 15 C 4.0202 -0.3469 2.4183 0
M  V30 16 N -4.5072 -0.0753 0.2027 0
M  V30 17 C -3.9068 0.495 -1.9127 0
M  V30 18 C 0.6009 0.0835 -3.3005 0
M  V30 19 C 5.4504 0.104 2.0888 0
M  V30 20 C 4.0422 -1.8609 2.6878 0
M  V30 21 C -5.5966 0.0054 -0.5614 0
M  V30 22 C -5.2791 0.3545 -1.8851 0
M  V30 23 C -3.0364 0.8807 -3.0487 0
M  V30 24 C 1.5323 0.0045 -4.486 0
M  V30 25 C -6.9341 -0.2567 0.0212 0
M  V30 26 O 2.7442 -0.128 -4.5041 0
M  V30 27 O 0.854 0.0855 -5.6542 0
M  V30 28 H 2.3419 -0.865 4.6246 0
M  V30 29 H 2.0996 0.875 4.8576 0
M  V30 30 H 3.3478 1.0149 0.8495 0
M  V30 31 H 3.241 -0.7037 0.4196 0
M  V30 32 H 0.0137 1.0017 -3.3914 0
M  V30 33 H -0.0491 -0.7957 -3.3241 0
M  V30 34 H 6.1314 -0.1252 2.9166 0
M  V30 35 H 5.8292 -0.3799 1.1827 0
M  V30 36 H 5.495 1.1901 1.9468 0
M  V30 37 H 4.4737 -2.409 1.8433 0
M  V30 38 H 4.6308 -2.085 3.5848 0
M  V30 39 H 3.0399 -2.2647 2.8627 0
M  V30 40 H -5.9607 0.4963 -2.7127 0
M  V30 41 H -2.4324 0.0307 -3.3782 0
M  V30 42 H -3.6395 1.2032 -3.9046 0
M  V30 43 H -2.3818 1.7161 -2.7828 0
M  V30 44 H -7.7202 -0.1584 -0.734 0
M  V30 45 H -7.148 0.453 0.8267 0
M  V30 46 H -6.983 -1.271 0.4303 0
M  V30 47 H 1.5564 0.0166 -6.336 0
M  V30 END ATOM
M  V30 BEGIN BOND
M  V30 1 1 1 2
M  V30 2 1 1 3
M  V30 3 2 2 4
M  V30 4 1 2 5
M  V30 5 2 3 6
M  V30 6 1 3 7
M  V30 7 1 4 8
M  V30 8 2 5 9
M  V30 9 1 6 10
M  V30 10 1 7 11
M  V30 11 2 8 12
M  V30 12 1 8 13
M  V30 13 1 9 14
M  V30 14 1 10 15
M  V30 15 1 13 16
M  V30 16 1 13 17
M  V30 17 1 14 18
M  V30 18 1 15 19
M  V30 19 1 15 20
M  V30 20 2 16 21
M  V30 21 2 17 22
M  V30 22 1 17 23
M  V30 23 1 18 24
M  V30 24 1 21 25
M  V30 25 2 24 26
M  V30 26 1 24 27
M  V30 27 1 5 6
M  V30 28 1 9 12
M  V30 29 1 11 15
M  V30 30 1 21 22
M  V30 31 1 7 28
M  V30 32 1 7 29
M  V30 33 1 10 30
M  V30 34 1 10 31
M  V30 35 1 18 32
M  V30 36 1 18 33
M  V30 37 1 19 34
M  V30 38 1 19 35
M  V30 39 1 19 36
M  V30 40 1 20 37
M  V30 41 1 20 38
M  V30 42 1 20 39
M  V30 43 1 22 40
M  V30 44 1 23 41
M  V30 45 1 23 42
M  V30 46 1 23 43
M  V30 47 1 25 44
M  V30 48 1 25 45
M  V30 49 1 25 46
M  V30 50 1 27 47
M  V30 END BOND
M  V30 END CTAB
M  END
>  <ID>
3820260

>  <Stereo Isomer>
1

>  <Energy>
88.112

>  <Error>


$$$$
659637
Actelion Java MolfileCreator 2.0

  0  0  0  0  0  0              0 V3000
M  V30 BEGIN CTAB
M  V30 COUNTS 31 32 0 0 0
M  V30 BEGIN ATOM
M  V30 1 O -2.5237 2.8395 0.1575 0
M  V30 2 C -1.5049 2.2316 0.495 0
M  V30 3 N -1.1217 1.0227 -0.0918 0
M  V30 4 N -0.6831 2.721 1.4984 0
M  V30 5 C 0.0566 0.3368 0.2593 0
M  V30 6 C -2.0361 0.4814 -1.0976 0
M  V30 7 C 0.452 2.0896 1.9345 0
M  V30 8 C -1.0774 3.9664 2.1293 0
M  V30 9 N 0.4681 -0.8532 -0.4397 0
M  V30 10 C 0.8197 0.8584 1.232 0
M  V30 11 O 1.1749 2.4747 2.85 0
M  V30 12 N 0.1393 -1.1335 -1.7434 0
M  V30 13 C 1.2677 -1.9113 0.0452 0
M  V30 14 C 0.8314 -2.2132 -2.0968 0
M  V30 15 C 1.5531 -2.7362 -1.0215 0
M  V30 16 C 1.6573 -2.1235 1.466 0
M  V30 17 C 0.7406 -2.7353 -3.4813 0
M  V30 18 H -3.0145 0.9706 -1.066 0
M  V30 19 H -1.6187 0.6545 -2.0938 0
M  V30 20 H -2.2161 -0.5818 -0.9125 0
M  V30 21 H -1.1831 4.7396 1.361 0
M  V30 22 H -0.3552 4.3038 2.877 0
M  V30 23 H -2.0511 3.8257 2.6099 0
M  V30 24 H 1.7757 0.4554 1.5338 0
M  V30 25 H 2.1601 -3.6312 -1.0029 0
M  V30 26 H 2.5939 -1.6068 1.6945 0
M  V30 27 H 0.8767 -1.7945 2.1579 0
M  V30 28 H 1.8201 -3.1902 1.6579 0
M  V30 29 H -0.2784 -3.0705 -3.6983 0
M  V30 30 H 1.4157 -3.5845 -3.6282 0
M  V30 31 H 1.012 -1.9593 -4.2042 0
M  V30 END ATOM
M  V30 BEGIN BOND
M  V30 1 2 1 2
M  V30 2 1 2 3
M  V30 3 1 2 4
M  V30 4 1 3 5
M  V30 5 1 3 6
M  V30 6 1 4 7
M  V30 7 1 4 8
M  V30 8 1 5 9
M  V30 9 2 5 10
M  V30 10 2 7 11
M  V30 11 1 9 12
M  V30 12 1 9 13
M  V30 13 2 12 14
M  V30 14 2 13 15
M  V30 15 1 13 16
M  V30 16 1 14 17
M  V30 17 1 7 10
M  V30 18 1 14 15
M  V30 19 1 6 18
M  V30 20 1 6 19
M  V30 21 1 6 20
M  V30 22 1 8 21
M  V30 23 1 8 22
M  V30 24 1 8 23
M  V30 25 1 10 24
M  V30 26 1 15 25
M  V30 27 1 16 26
M  V30 28 1 16 27
M  V30 29 1 16 28
M  V30 30 1 17 29
M  V30 31 1 17 30
M  V30 32 1 17 31
M  V30 END BOND
M  V30 END CTAB
M  END
>  <ID>
659637

>  <Stereo Isomer>
1

>  <Energy>
-51.904

>  <Error>


$$$$
879111
Actelion Java MolfileCreator 2.0

  0  0  0  0  0  0              0 V3000
M  V30 BEGIN CTAB
M  V30 COUNTS 37 40 0 0 0
M  V30 BEGIN ATOM
M  V30 1 F -6.1514 -2.4247 -2.1012 0
M  V30 2 C -4.9673 -1.9663 -1.6763 0
M  V30 3 C -4.4752 -2.3682 -0.4462 0
M  V30 4 C -4.2443 -1.0923 -2.4735 0
M  V30 5 C -3.2371 -1.8844 -0.0098 0
M  V30 6 C -3.0046 -0.6101 -2.0326 0
M  V30 7 C -2.4629 -0.9914 -0.7869 0
M  V30 8 C -1.1491 -0.5007 -0.2833 0
M  V30 9 N -0.7894 -0.9694 0.9267 0
M  V30 10 C -0.3249 0.3731 -0.9744 0
M  V30 11 C 0.3855 -0.5677 1.443 0
M  V30 12 C 0.8751 0.7518 -0.3909 0
M  V30 13 N 1.2309 0.279 0.8223 0
M  V30 14 N 0.7712 -1.0668 2.7344 0
M  V30 15 C 1.8522 1.6831 -1.0233 0
M  V30 16 N -0.0034 -1.9297 3.4576 0
M  V30 17 C 1.9381 -0.761 3.4129 0
M  V30 18 C 3.0537 2.0196 -0.363 0
M  V30 19 C 1.6495 2.2739 -2.2865 0
M  V30 20 C 0.6926 -2.1473 4.5738 0
M  V30 21 C 1.9084 -1.4472 4.6023 0
M  V30 22 C 3.9944 2.8898 -0.9253 0
M  V30 23 C 2.5886 3.146 -2.8537 0
M  V30 24 C 3.7604 3.4535 -2.1727 0
M  V30 25 H -5.0485 -3.0526 0.1701 0
M  V30 26 H -4.6467 -0.7888 -3.435 0
M  V30 27 H -2.8735 -2.2174 0.9631 0
M  V30 28 H -2.4804 0.071 -2.6956 0
M  V30 29 H -0.6106 0.7496 -1.9432 0
M  V30 30 H 2.6666 -0.0893 2.9815 0
M  V30 31 H 3.2746 1.5988 0.6166 0
M  V30 32 H 0.7555 2.0752 -2.8697 0
M  V30 33 H 0.2813 -2.8113 5.3237 0
M  V30 34 H 2.659 -1.4423 5.3796 0
M  V30 35 H 4.9073 3.1229 -0.3833 0
M  V30 36 H 2.4 3.5843 -3.8308 0
M  V30 37 H 4.4885 4.1297 -2.6126 0
M  V30 END ATOM
M  V30 BEGIN BOND
M  V30 1 1 1 2
M  V30 2 2 2 3
M  V30 3 1 2 4
M  V30 4 1 3 5
M  V30 5 2 4 6
M  V30 6 2 5 7
M  V30 7 1 7 8
M  V30 8 2 8 9
M  V30 9 1 8 10
M  V30 10 1 9 11
M  V30 11 2 10 12
M  V30 12 2 11 13
M  V30 13 1 11 14
M  V30 14 1 12 15
M  V30 15 1 14 16
M  V30 16 1 14 17
M  V30 17 2 15 18
M  V30 18 1 15 19
M  V30 19 2 16 20
M  V30 20 2 17 21
M  V30 21 1 18 22
M  V30 22 2 19 23
M  V30 23 2 22 24
M  V30 24 1 6 7
M  V30 25 1 12 13
M  V30 26 1 20 21
M  V30 27 1 23 24
M  V30 28 1 3 25
M  V30 29 1 4 26
M  V30 30 1 5 27
M  V30 31 1 6 28
M  V30 32 1 10 29
M  V30 33 1 17 30
M  V30 34 1 18 31
M  V30 35 1 19 32
M  V30 36 1 20 33
M  V30 37 1 21 34
M  V30 38 1 22 35
M  V30 39 1 23 36
M  V30 40 1 24 37
M  V30 END BOND
M  V30 END CTAB
M  END
>  <ID>
879111

>  <Stereo Isomer>
1

>  <Energy>
96.706

>  <Error>


$$$$
91897320
Actelion Java MolfileCreator 2.0

  0  0  0  0  0  0              0 V3000
M  V30 BEGIN CTAB
M  V30 COUNTS 45 47 0 0 0
M  V30 BEGIN ATOM
M  V30 1 O 0.5549 -0.9515 -4.9238 0
M  V30 2 C 1.5645 -0.0766 -4.62 0
M  V30 3 C 0.8445 -1.9926 -5.8472 0
M  V30 4 C 1.2448 0.9362 -3.6973 0
M  V30 5 C 2.8547 -0.1325 -5.159 0
M  V30 6 C 2.2339 1.8595 -3.3151 0
M  V30 7 C -0.1264 1.0307 -3.0654 0
M  V30 8 C 3.8242 0.7998 -4.7798 0
M  V30 9 C 3.5155 1.7935 -3.8569 0
M  V30 10 N -0.2196 0.2281 -1.8347 0
M  V30 11 N -0.0518 0.9141 -0.8019 0
M  V30 12 C -0.1214 0.1218 0.3585 0
M  V30 13 N -0.9055 0.6136 1.3314 0
M  V30 14 C 0.6106 -1.0395 0.5018 0
M  V30 15 C -0.9844 -0.0954 2.4744 0
M  V30 16 C 0.4789 -1.7059 1.6975 0
M  V30 17 N -0.3117 -1.2504 2.6875 0
M  V30 18 N -1.8321 0.4129 3.5309 0
M  V30 19 C 1.2284 -2.9802 1.9413 0
M  V30 20 N -2.5019 1.5974 3.3819 0
M  V30 21 C -2.0994 -0.1501 4.7791 0
M  V30 22 C -3.1764 1.7712 4.5188 0
M  V30 23 C -2.9611 0.7152 5.4207 0
M  V30 24 C -1.537 -1.4354 5.2642 0
M  V30 25 C -4.0235 2.9734 4.7022 0
M  V30 26 H 1.1082 -1.5871 -6.8296 0
M  V30 27 H -0.0621 -2.5929 -5.9686 0
M  V30 28 H 1.6306 -2.6523 -5.4654 0
M  V30 29 H 3.1419 -0.8923 -5.8779 0
M  V30 30 H 2.0041 2.6342 -2.5859 0
M  V30 31 H -0.3745 2.0844 -2.8754 0
M  V30 32 H -0.8935 0.684 -3.7673 0
M  V30 33 H 4.8232 0.7462 -5.2048 0
M  V30 34 H 4.2709 2.5148 -3.5568 0
M  V30 35 H 1.252 -1.3985 -0.2921 0
M  V30 36 H 1.0055 -3.3787 2.9363 0
M  V30 37 H 2.3066 -2.803 1.8789 0
M  V30 38 H 0.944 -3.7344 1.201 0
M  V30 39 H -3.3787 0.5953 6.4109 0
M  V30 40 H -0.4458 -1.3884 5.3297 0
M  V30 41 H -1.9123 -1.6645 6.2676 0
M  V30 42 H -1.8288 -2.2647 4.6126 0
M  V30 43 H -4.5082 2.969 5.6837 0
M  V30 44 H -4.8067 3.0118 3.9383 0
M  V30 45 H -3.4201 3.8838 4.6269 0
M  V30 END ATOM
M  V30 BEGIN BOND
M  V30 1 1 1 2
M  V30 2 1 1 3
M  V30 3 2 2 4
M  V30 4 1 2 5
M  V30 5 1 4 6
M  V30 6 1 4 7
M  V30 7 2 5 8
M  V30 8 2 6 9
M  V30 9 1 7 10
M  V30 10 2 10 11
M  V30 11 1 11 12
M  V30 12 2 12 13
M  V30 13 1 12 14
M  V30 14 1 13 15
M  V30 15 2 14 16
M  V30 16 2 15 17
M  V30 17 1 15 18
M  V30 18 1 16 19
M  V30 19 1 18 20
M  V30 20 1 18 21
M  V30 21 2 20 22
M  V30 22 2 21 23
M  V30 23 1 21 24
M  V30 24 1 22 25
M  V30 25 1 8 9
M  V30 26 1 16 17
M  V30 27 1 22 23
M  V30 28 1 3 26
M  V30 29 1 3 27
M  V30 30 1 3 28
M  V30 31 1 5 29
M  V30 32 1 6 30
M  V30 33 1 7 31
M  V30 34 1 7 32
M  V30 35 1 8 33
M  V30 36 1 9 34
M  V30 37 1 14 35
M  V30 38 1 19 36
M  V30 39 1 19 37
M  V30 40 1 19 38
M  V30 41 1 23 39
M  V30 42 1 24 40
M  V30 43 1 24 41
M  V30 44 1 24 42
M  V30 45 1 25 43
M  V30 46 1 25 44
M  V30 47 1 25 45
M  V30 END BOND
M  V30 END CTAB
M  END
>  <ID>
91897320

>  <Stereo Isomer>
1

>  <Energy>
90.136

>  <Error>


$$$$
91896634
Actelion Java MolfileCreator 2.0

  0  0  0  0  0  0              0 V3000
M  V30 BEGIN CTAB
M  V30 COUNTS 45 47 0 0 0
M  V30 BEGIN ATOM
M  V30 1 O -5.6395 3.2536 -3.7304 0
M  V30 2 C -4.3637 2.865 -3.4272 0
M  V30 3 C -6.1672 4.3516 -2.9969 0
M  V30 4 C -3.5401 3.4343 -2.4563 0
M  V30 5 C -3.8851 1.7921 -4.1826 0
M  V30 6 C -2.2491 2.9355 -2.2482 0
M  V30 7 C -2.597 1.2914 -3.9771 0
M  V30 8 C -1.7622 1.8665 -3.0124 0
M  V30 9 C -0.377 1.3212 -2.7657 0
M  V30 10 N -0.3651 0.4213 -1.6037 0
M  V30 11 N 0.7487 -0.125 -1.449 0
M  V30 12 C 0.7738 -0.9488 -0.3067 0
M  V30 13 N 1.8816 -0.8286 0.4422 0
M  V30 14 C -0.2344 -1.8447 -0.0112 0
M  V30 15 C 1.9731 -1.6089 1.5373 0
M  V30 16 C -0.0683 -2.6072 1.1213 0
M  V30 17 N 1.023 -2.5005 1.9025 0
M  V30 18 N 3.1556 -1.4844 2.3619 0
M  V30 19 C -1.1146 -3.6006 1.5267 0
M  V30 20 N 4.1505 -0.6049 2.0295 0
M  V30 21 C 3.4746 -2.169 3.5348 0
M  V30 22 C 5.0768 -0.7387 2.9794 0
M  V30 23 C 4.7067 -1.6971 3.9386 0
M  V30 24 C 2.6138 -3.1948 4.1758 0
M  V30 25 C 6.3129 0.0775 2.9307 0
M  V30 26 H -6.2351 4.117 -1.9295 0
M  V30 27 H -7.1818 4.5401 -3.361 0
M  V30 28 H -5.5788 5.2595 -3.1663 0
M  V30 29 H -3.8699 4.2641 -1.8404 0
M  V30 30 H -4.5237 1.34 -4.9377 0
M  V30 31 H -1.6233 3.3855 -1.4794 0
M  V30 32 H -2.2538 0.4504 -4.5752 0
M  V30 33 H -0.0249 0.792 -3.6611 0
M  V30 34 H 0.3144 2.1576 -2.6013 0
M  V30 35 H -1.1085 -1.9359 -0.6423 0
M  V30 36 H -1.246 -4.3532 0.7429 0
M  V30 37 H -0.826 -4.1158 2.4488 0
M  V30 38 H -2.0689 -3.0946 1.7037 0
M  V30 39 H 5.2625 -2.007 4.8129 0
M  V30 40 H 2.4551 -4.0484 3.5095 0
M  V30 41 H 3.0864 -3.5783 5.0868 0
M  V30 42 H 1.6467 -2.7728 4.4659 0
M  V30 43 H 6.9693 -0.1484 3.7772 0
M  V30 44 H 6.0704 1.1444 2.9663 0
M  V30 45 H 6.869 -0.1214 2.0089 0
M  V30 END ATOM
M  V30 BEGIN BOND
M  V30 1 1 1 2
M  V30 2 1 1 3
M  V30 3 2 2 4
M  V30 4 1 2 5
M  V30 5 1 4 6
M  V30 6 2 5 7
M  V30 7 2 6 8
M  V30 8 1 8 9
M  V30 9 1 9 10
M  V30 10 2 10 11
M  V30 11 1 11 12
M  V30 12 2 12 13
M  V30 13 1 12 14
M  V30 14 1 13 15
M  V30 15 2 14 16
M  V30 16 2 15 17
M  V30 17 1 15 18
M  V30 18 1 16 19
M  V30 19 1 18 20
M  V30 20 1 18 21
M  V30 21 2 20 22
M  V30 22 2 21 23
M  V30 23 1 21 24
M  V30 24 1 22 25
M  V30 25 1 7 8
M  V30 26 1 16 17
M  V30 27 1 22 23
M  V30 28 1 3 26
M  V30 29 1 3 27
M  V30 30 1 3 28
M  V30 31 1 4 29
M  V30 32 1 5 30
M  V30 33 1 6 31
M  V30 34 1 7 32
M  V30 35 1 9 33
M  V30 36 1 9 34
M  V30 37 1 14 35
M  V30 38 1 19 36
M  V30 39 1 19 37
M  V30 40 1 19 38
M  V30 41 1 23 39
M  V30 42 1 24 40
M  V30 43 1 24 41
M  V30 44 1 24 42
M  V30 45 1 25 43
M  V30 46 1 25 44
M  V30 47 1 25 45
M  V30 END BOND
M  V30 END CTAB
M  END
>  <ID>
91896634

>  <Stereo Isomer>
1

>  <Energy>
90.407

>  <Error>


$$$$
91897352
Actelion Java MolfileCreator 2.0

  0  0  0  0  0  0              0 V3000
M  V30 BEGIN CTAB
M  V30 COUNTS 49 51 0 0 0
M  V30 BEGIN ATOM
M  V30 1 O -4.9153 0.6331 2.6139 0
M  V30 2 C -4.6694 -0.21 1.5628 0
M  V30 3 C -4.2647 1.9005 2.6115 0
M  V30 4 C -5.3496 -1.4352 1.5792 0
M  V30 5 C -3.8004 0.0603 0.5017 0
M  V30 6 C -4.7093 2.6571 3.8503 0
M  V30 7 O -6.2033 -1.7122 2.6144 0
M  V30 8 C -5.1681 -2.3747 0.5643 0
M  V30 9 C -3.6139 -0.8728 -0.5338 0
M  V30 10 C -4.2971 -2.0946 -0.4878 0
M  V30 11 C -2.6439 -0.5754 -1.6535 0
M  V30 12 N -1.2669 -0.9295 -1.2781 0
M  V30 13 N -0.5836 0.0724 -0.9714 0
M  V30 14 C 0.7174 -0.3027 -0.5934 0
M  V30 15 N 1.7043 0.2563 -1.3108 0
M  V30 16 C 0.9467 -1.1404 0.4788 0
M  V30 17 C 2.9675 -0.0566 -0.9615 0
M  V30 18 C 2.2619 -1.4102 0.7745 0
M  V30 19 N 3.2779 -0.8807 0.0662 0
M  V30 20 N 4.0472 0.5261 -1.7279 0
M  V30 21 C 2.6121 -2.3144 1.917 0
M  V30 22 N 3.7866 1.3824 -2.7636 0
M  V30 23 C 5.4218 0.3456 -1.5717 0
M  V30 24 C 4.9795 1.7315 -3.2462 0
M  V30 25 C 6.0286 1.116 -2.542 0
M  V30 26 C 6.0489 -0.5209 -0.5427 0
M  V30 27 C 5.0713 2.6655 -4.3935 0
M  V30 28 H -4.5489 2.4739 1.7218 0
M  V30 29 H -3.1769 1.7696 2.6447 0
M  V30 30 H -3.2448 0.992 0.4552 0
M  V30 31 H -4.2354 3.6417 3.8968 0
M  V30 32 H -5.7965 2.7873 3.8529 0
M  V30 33 H -4.453 2.0982 4.7563 0
M  V30 34 H -6.6099 -2.5793 2.4664 0
M  V30 35 H -5.6901 -3.3263 0.5803 0
M  V30 36 H -4.1512 -2.836 -1.2705 0
M  V30 37 H -2.9191 -1.1563 -2.5419 0
M  V30 38 H -2.7315 0.4783 -1.9507 0
M  V30 39 H 0.1268 -1.5571 1.0487 0
M  V30 40 H 2.1819 -3.3083 1.7589 0
M  V30 41 H 3.6976 -2.4237 2.0084 0
M  V30 42 H 2.2308 -1.9023 2.8565 0
M  V30 43 H 7.091 1.2174 -2.7159 0
M  V30 44 H 5.7357 -1.5629 -0.6605 0
M  V30 45 H 7.1404 -0.4984 -0.6347 0
M  V30 46 H 5.8018 -0.1769 0.4659 0
M  V30 47 H 6.1145 2.8521 -4.6684 0
M  V30 48 H 4.6101 3.6266 -4.1445 0
M  V30 49 H 4.5598 2.2512 -5.2682 0
M  V30 END ATOM
M  V30 BEGIN BOND
M  V30 1 1 1 2
M  V30 2 1 1 3
M  V30 3 2 2 4
M  V30 4 1 2 5
M  V30 5 1 3 6
M  V30 6 1 4 7
M  V30 7 1 4 8
M  V30 8 2 5 9
M  V30 9 2 8 10
M  V30 10 1 9 11
M  V30 11 1 11 12
M  V30 12 2 12 13
M  V30 13 1 13 14
M  V30 14 2 14 15
M  V30 15 1 14 16
M  V30 16 1 15 17
M  V30 17 2 16 18
M  V30 18 2 17 19
M  V30 19 1 17 20
M  V30 20 1 18 21
M  V30 21 1 20 22
M  V30 22 1 20 23
M  V30 23 2 22 24
M  V30 24 2 23 25
M  V30 25 1 23 26
M  V30 26 1 24 27
M  V30 27 1 9 10
M  V30 28 1 18 19
M  V30 29 1 24 25
M  V30 30 1 3 28
M  V30 31 1 3 29
M  V30 32 1 5 30
M  V30 33 1 6 31
M  V30 34 1 6 32
M  V30 35 1 6 33
M  V30 36 1 7 34
M  V30 37 1 8 35
M  V30 38 1 10 36
M  V30 39 1 11 37
M  V30 40 1 11 38
M  V30 41 1 16 39
M  V30 42 1 21 40
M  V30 43 1 21 41
M  V30 44 1 21 42
M  V30 45 1 25 43
M  V30 46 1 26 44
M  V30 47 1 26 45
M  V30 48 1 26 46
M  V30 49 1 27 47
M  V30 50 1 27 48
M  V30 51 1 27 49
M  V30 END BOND
M  V30 END CTAB
M  END
>  <ID>
91897352

>  <Stereo Isomer>
1

>  <Energy>
94.131

>  <Error>


$$$$
91896220
Actelion Java MolfileCreator 2.0

  0  0  0  0  0  0              0 V3000
M  V30 BEGIN CTAB
M  V30 COUNTS 43 45 0 0 0
M  V30 BEGIN ATOM
M  V30 1 O 0.4759 -3.176 -3.8121 0
M  V30 2 C -0.2279 -2.2356 -4.5107 0
M  V30 3 C -1.1913 -1.476 -3.8361 0
M  V30 4 C 0.018 -2.0481 -5.8724 0
M  V30 5 C -1.9014 -0.5006 -4.5557 0
M  V30 6 C -1.4528 -1.6458 -2.3592 0
M  V30 7 C -0.7063 -1.0815 -6.5634 0
M  V30 8 C -1.6613 -0.3071 -5.9165 0
M  V30 9 N -0.7493 -0.617 -1.5767 0
M  V30 10 O -0.5067 -0.856 -7.8937 0
M  V30 11 N -1.1882 -0.5309 -0.4092 0
M  V30 12 C -0.4895 0.4293 0.3491 0
M  V30 13 N -0.2748 0.0684 1.6271 0
M  V30 14 C -0.1063 1.6556 -0.158 0
M  V30 15 C 0.3678 0.9525 2.4131 0
M  V30 16 C 0.5426 2.504 0.7078 0
M  V30 17 N 0.7853 2.167 1.9865 0
M  V30 18 N 0.6246 0.5912 3.7903 0
M  V30 19 C 1.0044 3.8535 0.2494 0
M  V30 20 N 1.2412 1.4691 4.6412 0
M  V30 21 C 0.3215 -0.6013 4.4476 0
M  V30 22 C 1.3196 0.8349 5.8117 0
M  V30 23 C 0.763 -0.4536 5.7463 0
M  V30 24 C -0.3456 -1.7681 3.8165 0
M  V30 25 C 1.9413 1.505 6.9785 0
M  V30 26 H 1.1406 -3.5777 -4.3948 0
M  V30 27 H 0.7628 -2.6457 -6.3848 0
M  V30 28 H -2.6453 0.1154 -4.0552 0
M  V30 29 H -2.5367 -1.5863 -2.188 0
M  V30 30 H -1.1456 -2.6416 -2.0187 0
M  V30 31 H -2.2157 0.4463 -6.4687 0
M  V30 32 H 0.1789 -1.4618 -8.2179 0
M  V30 33 H -0.3079 1.9306 -1.1846 0
M  V30 34 H 1.5032 4.392 1.0618 0
M  V30 35 H 1.7148 3.75 -0.5765 0
M  V30 36 H 0.151 4.4528 -0.0826 0
M  V30 37 H 0.6915 -1.1847 6.5398 0
M  V30 38 H 0.2435 -2.1544 2.9792 0
M  V30 39 H -0.4558 -2.5844 4.5388 0
M  V30 40 H -1.3492 -1.5067 3.4674 0
M  V30 41 H 1.9268 0.8565 7.8603 0
M  V30 42 H 1.4017 2.4248 7.2261 0
M  V30 43 H 2.9839 1.7611 6.7639 0
M  V30 END ATOM
M  V30 BEGIN BOND
M  V30 1 1 1 2
M  V30 2 2 2 3
M  V30 3 1 2 4
M  V30 4 1 3 5
M  V30 5 1 3 6
M  V30 6 2 4 7
M  V30 7 2 5 8
M  V30 8 1 6 9
M  V30 9 1 7 10
M  V30 10 2 9 11
M  V30 11 1 11 12
M  V30 12 2 12 13
M  V30 13 1 12 14
M  V30 14 1 13 15
M  V30 15 2 14 16
M  V30 16 2 15 17
M  V30 17 1 15 18
M  V30 18 1 16 19
M  V30 19 1 18 20
M  V30 20 1 18 21
M  V30 21 2 20 22
M  V30 22 2 21 23
M  V30 23 1 21 24
M  V30 24 1 22 25
M  V30 25 1 7 8
M  V30 26 1 16 17
M  V30 27 1 22 23
M  V30 28 1 1 26
M  V30 29 1 4 27
M  V30 30 1 5 28
M  V30 31 1 6 29
M  V30 32 1 6 30
M  V30 33 1 8 31
M  V30 34 1 10 32
M  V30 35 1 14 33
M  V30 36 1 19 34
M  V30 37 1 19 35
M  V30 38 1 19 36
M  V30 39 1 23 37
M  V30 40 1 24 38
M  V30 41 1 24 39
M  V30 42 1 24 40
M  V30 43 1 25 41
M  V30 44 1 25 42
M  V30 45 1 25 43
M  V30 END BOND
M  V30 END CTAB
M  END
>  <ID>
91896220

>  <Stereo Isomer>
1

>  <Energy>
66.073

>  <Error>


$$$$
69093374
Actelion Java MolfileCreator 2.0

  0  0  0  0  0  0              0 V3000
M  V30 BEGIN CTAB
M  V30 COUNTS 40 41 0 0 0
M  V30 BEGIN ATOM
M  V30 1 F -6.1371 -0.3181 -2.4673 0
M  V30 2 C -5.4757 -0.6166 -1.3104 0
M  V30 3 F -5.8633 -1.8817 -0.9898 0
M  V30 4 F -6.0293 0.1975 -0.3652 0
M  V30 5 C -4.0049 -0.4751 -1.4373 0
M  V30 6 C -3.164 -0.2575 -0.369 0
M  V30 7 C -3.3953 -0.6066 -2.666 0
M  V30 8 N -1.83 -0.1965 -0.5433 0
M  V30 9 N -3.6561 -0.1636 0.9222 0
M  V30 10 N -2.067 -0.527 -2.8611 0
M  V30 11 C -1.3131 -0.3241 -1.7741 0
M  V30 12 C -2.7269 -0.0834 2.0308 0
M  V30 13 N 0.0623 -0.2553 -2.0062 0
M  V30 14 C 1.1022 -0.0727 -1.1684 0
M  V30 15 C 2.4743 -0.0165 -1.5163 0
M  V30 16 C 1.0786 0.0964 0.1917 0
M  V30 17 N 3.2498 0.1754 -0.4402 0
M  V30 18 C 3.0859 -0.1416 -2.8619 0
M  V30 19 N 2.3772 0.2416 0.5956 0
M  V30 20 C 2.8964 0.4474 1.9624 0
M  V30 21 C 1.8071 0.5036 2.9668 0
M  V30 22 C 3.8336 -0.7163 2.338 0
M  V30 23 C 3.6725 1.777 2.0251 0
M  V30 24 N 0.9631 0.5495 3.7647 0
M  V30 25 H -3.9739 -0.7903 -3.5692 0
M  V30 26 H -4.5629 0.2692 1.0632 0
M  V30 27 H -2.1141 0.8219 1.971 0
M  V30 28 H -2.0761 -0.9635 2.0692 0
M  V30 29 H -3.287 -0.0451 2.9705 0
M  V30 30 H 0.2019 -0.3771 -3.0016 0
M  V30 31 H 0.25 0.1219 0.8847 0
M  V30 32 H 4.1767 -0.0542 -2.8195 0
M  V30 33 H 2.7099 0.6432 -3.5258 0
M  V30 34 H 2.8418 -1.1135 -3.3024 0
M  V30 35 H 3.3125 -1.68 2.2795 0
M  V30 36 H 4.2123 -0.6095 3.3619 0
M  V30 37 H 4.7013 -0.7717 1.6704 0
M  V30 38 H 3.0349 2.6225 1.7378 0
M  V30 39 H 4.5378 1.7753 1.352 0
M  V30 40 H 4.044 1.9751 3.0378 0
M  V30 END ATOM
M  V30 BEGIN BOND
M  V30 1 1 1 2
M  V30 2 1 2 3
M  V30 3 1 2 4
M  V30 4 1 2 5
M  V30 5 2 5 6
M  V30 6 1 5 7
M  V30 7 1 6 8
M  V30 8 1 6 9
M  V30 9 2 7 10
M  V30 10 2 8 11
M  V30 11 1 9 12
M  V30 12 1 11 13
M  V30 13 1 13 14
M  V30 14 1 14 15
M  V30 15 2 14 16
M  V30 16 2 15 17
M  V30 17 1 15 18
M  V30 18 1 16 19
M  V30 19 1 19 20
M  V30 20 1 20 21
M  V30 21 1 20 22
M  V30 22 1 20 23
M  V30 23 3 21 24
M  V30 24 1 10 11
M  V30 25 1 17 19
M  V30 26 1 7 25
M  V30 27 1 9 26
M  V30 28 1 12 27
M  V30 29 1 12 28
M  V30 30 1 12 29
M  V30 31 1 13 30
M  V30 32 1 16 31
M  V30 33 1 18 32
M  V30 34 1 18 33
M  V30 35 1 18 34
M  V30 36 1 22 35
M  V30 37 1 22 36
M  V30 38 1 22 37
M  V30 39 1 23 38
M  V30 40 1 23 39
M  V30 41 1 23 40
M  V30 END BOND
M  V30 END CTAB
M  END
>  <ID>
69093374

>  <Stereo Isomer>
1

>  <Energy>
-84.613

>  <Error>


$$$$
665690
Actelion Java MolfileCreator 2.0

  0  0  0  0  0  0              0 V3000
M  V30 BEGIN CTAB
M  V30 COUNTS 54 58 0 0 0
M  V30 BEGIN ATOM
M  V30 1 S -1.7781 0.0807 -3.4777 0
M  V30 2 C -0.9488 -0.6908 -2.2041 0
M  V30 3 C -1.6278 1.5967 -2.7305 0
M  V30 4 N -0.752 -2.0136 -2.2471 0
M  V30 5 C -0.5394 0.1819 -1.207 0
M  V30 6 C -0.9776 1.5261 -1.513 0
M  V30 7 C -2.1977 2.834 -3.3409 0
M  V30 8 C -0.0824 -2.4932 -1.1894 0
M  V30 9 C 0.1842 -0.4048 -0.1473 0
M  V30 10 C -0.7853 2.7778 -0.7089 0
M  V30 11 O -1.6742 3.9874 -2.6588 0
M  V30 12 N 0.3825 -1.7427 -0.1648 0
M  V30 13 N 0.1614 -3.9205 -1.152 0
M  V30 14 N 0.7065 0.3271 0.895 0
M  V30 15 C -1.6998 3.9269 -1.217 0
M  V30 16 N -0.2611 -4.7271 -2.1741 0
M  V30 17 C 0.8068 -4.6715 -0.1684 0
M  V30 18 C 1.4434 -0.318 1.9551 0
M  V30 19 C -1.1293 5.2681 -0.7337 0
M  V30 20 C -3.1379 3.7956 -0.6882 0
M  V30 21 C 0.1158 -5.9605 -1.8365 0
M  V30 22 C 0.7832 -5.9818 -0.6002 0
M  V30 23 C 1.3848 -4.1153 1.0793 0
M  V30 24 C 1.8832 0.7168 2.952 0
M  V30 25 C -0.1859 -7.1007 -2.7342 0
M  V30 26 C 1.0885 1.0369 4.0479 0
M  V30 27 C 3.0754 1.4299 2.7907 0
M  V30 28 N 1.4069 1.9771 4.9665 0
M  V30 29 C 3.4298 2.4008 3.7229 0
M  V30 30 C 2.5722 2.6346 4.7847 0
M  V30 31 H -1.9104 2.9233 -4.3936 0
M  V30 32 H -3.2911 2.844 -3.2839 0
M  V30 33 H 0.2683 3.067 -0.8151 0
M  V30 34 H -0.979 2.5961 0.3536 0
M  V30 35 H 0.6603 1.3327 0.8781 0
M  V30 36 H 0.8251 -1.0713 2.4594 0
M  V30 37 H 2.3265 -0.8353 1.5589 0
M  V30 38 H -0.1233 5.4332 -1.1365 0
M  V30 39 H -1.7434 6.1034 -1.0899 0
M  V30 40 H -1.0777 5.3159 0.3587 0
M  V30 41 H -3.5854 2.8289 -0.9403 0
M  V30 42 H -3.1715 3.898 0.4015 0
M  V30 43 H -3.7833 4.5635 -1.1296 0
M  V30 44 H 1.1945 -6.8395 -0.0856 0
M  V30 45 H 0.6162 -3.6281 1.687 0
M  V30 46 H 1.822 -4.9132 1.6898 0
M  V30 47 H 2.1847 -3.402 0.8588 0
M  V30 48 H 0.192 -8.0408 -2.3197 0
M  V30 49 H 0.2786 -6.952 -3.7144 0
M  V30 50 H -1.2668 -7.2034 -2.8745 0
M  V30 51 H 0.1394 0.5356 4.2225 0
M  V30 52 H 3.7267 1.2319 1.9427 0
M  V30 53 H 4.3518 2.9628 3.6231 0
M  V30 54 H 2.805 3.3812 5.5387 0
M  V30 END ATOM
M  V30 BEGIN BOND
M  V30 1 1 1 2
M  V30 2 1 1 3
M  V30 3 2 2 4
M  V30 4 1 2 5
M  V30 5 2 3 6
M  V30 6 1 3 7
M  V30 7 1 4 8
M  V30 8 2 5 9
M  V30 9 1 6 10
M  V30 10 1 7 11
M  V30 11 2 8 12
M  V30 12 1 8 13
M  V30 13 1 9 14
M  V30 14 1 10 15
M  V30 15 1 13 16
M  V30 16 1 13 17
M  V30 17 1 14 18
M  V30 18 1 15 19
M  V30 19 1 15 20
M  V30 20 2 16 21
M  V30 21 2 17 22
M  V30 22 1 17 23
M  V30 23 1 18 24
M  V30 24 1 21 25
M  V30 25 2 24 26
M  V30 26 1 24 27
M  V30 27 1 26 28
M  V30 28 2 27 29
M  V30 29 2 28 30
M  V30 30 1 5 6
M  V30 31 1 9 12
M  V30 32 1 11 15
M  V30 33 1 21 22
M  V30 34 1 29 30
M  V30 35 1 7 31
M  V30 36 1 7 32
M  V30 37 1 10 33
M  V30 38 1 10 34
M  V30 39 1 14 35
M  V30 40 1 18 36
M  V30 41 1 18 37
M  V30 42 1 19 38
M  V30 43 1 19 39
M  V30 44 1 19 40
M  V30 45 1 20 41
M  V30 46 1 20 42
M  V30 47 1 20 43
M  V30 48 1 22 44
M  V30 49 1 23 45
M  V30 50 1 23 46
M  V30 51 1 23 47
M  V30 52 1 25 48
M  V30 53 1 25 49
M  V30 54 1 25 50
M  V30 55 1 26 51
M  V30 56 1 27 52
M  V30 57 1 29 53
M  V30 58 1 30 54
M  V30 END BOND
M  V30 END CTAB
M  END
>  <ID>
665690

>  <Stereo Isomer>
1

>  <Energy>
89.947

>  <Error>


$$$$
3242
Actelion Java MolfileCreator 2.0

  0  0  0  0  0  0              0 V3000
M  V30 BEGIN CTAB
M  V30 COUNTS 31 32 0 0 0
M  V30 BEGIN ATOM
M  V30 1 O 1.7329 -0.6298 3.3893 0
M  V30 2 C 0.6874 -0.4493 2.5293 0
M  V30 3 C 1.4266 -0.8433 4.758 0
M  V30 4 N 1.0924 -0.2566 1.2654 0
M  V30 5 C -0.6424 -0.4581 2.8854 0
M  V30 6 C 0.1448 -0.0661 0.3222 0
M  V30 7 C -1.5536 -0.2569 1.8691 0
M  V30 8 N -1.1786 -0.0611 0.5926 0
M  V30 9 N 0.5796 0.1412 -1.0392 0
M  V30 10 C -3.0242 -0.2498 2.1601 0
M  V30 11 N 1.9135 0.1446 -1.3633 0
M  V30 12 C -0.2127 0.3572 -2.1725 0
M  V30 13 C 1.9543 0.3591 -2.6779 0
M  V30 14 O -1.5494 0.3953 -2.1005 0
M  V30 15 C 0.6672 0.4977 -3.2274 0
M  V30 16 C 3.2601 0.4252 -3.377 0
M  V30 17 C -2.241 0.6219 -3.3209 0
M  V30 18 H 0.8433 -1.7602 4.895 0
M  V30 19 H 2.3706 -0.9674 5.2974 0
M  V30 20 H 0.9101 0.021 5.1878 0
M  V30 21 H -0.9828 -0.6119 3.8988 0
M  V30 22 H -3.602 -0.0779 1.2462 0
M  V30 23 H -3.2654 0.547 2.8704 0
M  V30 24 H -3.3312 -1.2124 2.5811 0
M  V30 25 H 0.417 0.6773 -4.2627 0
M  V30 26 H 3.8072 -0.5154 -3.259 0
M  V30 27 H 3.8728 1.2366 -2.9709 0
M  V30 28 H 3.1257 0.6065 -4.4482 0
M  V30 29 H -3.3138 0.6268 -3.1067 0
M  V30 30 H -1.9751 1.5952 -3.7468 0
M  V30 31 H -2.0416 -0.1805 -4.0389 0
M  V30 END ATOM
M  V30 BEGIN BOND
M  V30 1 1 1 2
M  V30 2 1 1 3
M  V30 3 2 2 4
M  V30 4 1 2 5
M  V30 5 1 4 6
M  V30 6 2 5 7
M  V30 7 2 6 8
M  V30 8 1 6 9
M  V30 9 1 7 10
M  V30 10 1 9 11
M  V30 11 1 9 12
M  V30 12 2 11 13
M  V30 13 1 12 14
M  V30 14 2 12 15
M  V30 15 1 13 16
M  V30 16 1 14 17
M  V30 17 1 7 8
M  V30 18 1 13 15
M  V30 19 1 3 18
M  V30 20 1 3 19
M  V30 21 1 3 20
M  V30 22 1 5 21
M  V30 23 1 10 22
M  V30 24 1 10 23
M  V30 25 1 10 24
M  V30 26 1 15 25
M  V30 27 1 16 26
M  V30 28 1 16 27
M  V30 29 1 16 28
M  V30 30 1 17 29
M  V30 31 1 17 30
M  V30 32 1 17 31
M  V30 END BOND
M  V30 END CTAB
M  END
>  <ID>
3242

>  <Stereo Isomer>
1

>  <Energy>
77.283

>  <Error>


$$$$
135415440
Actelion Java MolfileCreator 2.0

  0  0  0  0  0  0              0 V3000
M  V30 BEGIN CTAB
M  V30 COUNTS 39 41 0 0 0
M  V30 BEGIN ATOM
M  V30 1 O 0.0789 4.9837 3.5578 0
M  V30 2 C 0.2607 3.8601 3.1077 0
M  V30 3 N -0.1334 3.4694 1.8687 0
M  V30 4 C 0.9399 2.8177 3.8962 0
M  V30 5 C 0.0956 2.2002 1.4106 0
M  V30 6 C 1.1151 1.604 3.3507 0
M  V30 7 N 0.6952 1.2654 2.0826 0
M  V30 8 N -0.399 2.0305 0.1009 0
M  V30 9 C 1.8 0.5047 4.1126 0
M  V30 10 N -0.9934 3.0922 -0.5317 0
M  V30 11 C -0.3739 0.888 -0.6948 0
M  V30 12 C -1.2923 2.6236 -1.7479 0
M  V30 13 N 0.1642 -0.2753 -0.2403 0
M  V30 14 C -0.9194 1.2709 -1.9006 0
M  V30 15 C -1.9324 3.5087 -2.7512 0
M  V30 16 C 0.0894 -1.5691 -0.7911 0
M  V30 17 C -0.9291 -1.9911 -1.6497 0
M  V30 18 C 1.1226 -2.4748 -0.5077 0
M  V30 19 C -0.9278 -3.2801 -2.1972 0
M  V30 20 C 1.1311 -3.763 -1.0533 0
M  V30 21 C 0.0968 -4.1805 -1.8943 0
M  V30 22 C 0.1169 -5.5484 -2.5081 0
M  V30 23 H -0.6084 4.1315 1.2627 0
M  V30 24 H 1.2682 3.0864 4.8911 0
M  V30 25 H 2.6928 0.1701 3.5738 0
M  V30 26 H 2.1124 0.8259 5.1119 0
M  V30 27 H 1.1263 -0.3503 4.2307 0
M  V30 28 H 0.6575 -0.2594 0.6592 0
M  V30 29 H -1.0241 0.6642 -2.7881 0
M  V30 30 H -2.1331 2.9697 -3.6827 0
M  V30 31 H -2.884 3.8945 -2.3716 0
M  V30 32 H -1.2814 4.3576 -2.9841 0
M  V30 33 H -1.7657 -1.3388 -1.8783 0
M  V30 34 H 1.9465 -2.1756 0.1356 0
M  V30 35 H -1.7409 -3.575 -2.8569 0
M  V30 36 H 1.9541 -4.4337 -0.8177 0
M  V30 37 H -0.9005 -5.9142 -2.6806 0
M  V30 38 H 0.6117 -6.2666 -1.8457 0
M  V30 39 H 0.6504 -5.5222 -3.4633 0
M  V30 END ATOM
M  V30 BEGIN BOND
M  V30 1 2 1 2
M  V30 2 1 2 3
M  V30 3 1 2 4
M  V30 4 1 3 5
M  V30 5 2 4 6
M  V30 6 2 5 7
M  V30 7 1 5 8
M  V30 8 1 6 9
M  V30 9 1 8 10
M  V30 10 1 8 11
M  V30 11 2 10 12
M  V30 12 1 11 13
M  V30 13 2 11 14
M  V30 14 1 12 15
M  V30 15 1 13 16
M  V30 16 2 16 17
M  V30 17 1 16 18
M  V30 18 1 17 19
M  V30 19 2 18 20
M  V30 20 2 19 21
M  V30 21 1 21 22
M  V30 22 1 6 7
M  V30 23 1 12 14
M  V30 24 1 20 21
M  V30 25 1 3 23
M  V30 26 1 4 24
M  V30 27 1 9 25
M  V30 28 1 9 26
M  V30 29 1 9 27
M  V30 30 1 13 28
M  V30 31 1 14 29
M  V30 32 1 15 30
M  V30 33 1 15 31
M  V30 34 1 15 32
M  V30 35 1 17 33
M  V30 36 1 18 34
M  V30 37 1 19 35
M  V30 38 1 20 36
M  V30 39 1 22 37
M  V30 40 1 22 38
M  V30 41 1 22 39
M  V30 END BOND
M  V30 END CTAB
M  END
>  <ID>
135415440

>  <Stereo Isomer>
1

>  <Energy>
37.679

>  <Error>


$$$$
10821152
Actelion Java MolfileCreator 2.0

  0  0  0  0  0  0              0 V3000
M  V30 BEGIN CTAB
M  V30 COUNTS 21 22 0 0 0
M  V30 BEGIN ATOM
M  V30 1 O -2.5399 -0.3172 -1.5868 0
M  V30 2 C -1.2765 0.1407 -1.2661 0
M  V30 3 C -3.0485 0.2324 -2.7978 0
M  V30 4 N -0.6572 1.0199 -2.0732 0
M  V30 5 C -0.7311 -0.354 -0.107 0
M  V30 6 C 0.5615 1.405 -1.6797 0
M  V30 7 C 0.5303 0.1104 0.2025 0
M  V30 8 N 1.2 0.9972 -0.5756 0
M  V30 9 N 1.1647 -0.3566 1.3911 0
M  V30 10 N 0.5719 -1.2465 2.235 0
M  V30 11 C 2.4171 0.0056 1.844 0
M  V30 12 C 1.4672 -1.4278 3.2078 0
M  V30 13 C 2.6353 -0.6737 3.0174 0
M  V30 14 H -2.4239 -0.0462 -3.6534 0
M  V30 15 H -4.045 -0.1887 -2.9623 0
M  V30 16 H -3.1551 1.3204 -2.7256 0
M  V30 17 H -1.2711 -1.061 0.5087 0
M  V30 18 H 1.0812 2.1142 -2.315 0
M  V30 19 H 3.0244 0.7071 1.2892 0
M  V30 20 H 1.2294 -2.1053 4.0185 0
M  V30 21 H 3.5138 -0.6298 3.645 0
M  V30 END ATOM
M  V30 BEGIN BOND
M  V30 1 1 1 2
M  V30 2 1 1 3
M  V30 3 2 2 4
M  V30 4 1 2 5
M  V30 5 1 4 6
M  V30 6 2 5 7
M  V30 7 2 6 8
M  V30 8 1 7 9
M  V30 9 1 9 10
M  V30 10 1 9 11
M  V30 11 2 10 12
M  V30 12 2 11 13
M  V30 13 1 7 8
M  V30 14 1 12 13
M  V30 15 1 3 14
M  V30 16 1 3 15
M  V30 17 1 3 16
M  V30 18 1 5 17
M  V30 19 1 6 18
M  V30 20 1 11 19
M  V30 21 1 12 20
M  V30 22 1 13 21
M  V30 END BOND
M  V30 END CTAB
M  END
>  <ID>
10821152

>  <Stereo Isomer>
1

>  <Energy>
-2.0819

>  <Error>


$$$$
665681
Actelion Java MolfileCreator 2.0

  0  0  0  0  0  0              0 V3000
M  V30 BEGIN CTAB
M  V30 COUNTS 54 58 0 0 0
M  V30 BEGIN ATOM
M  V30 1 S -0.4963 0.2481 4.1415 0
M  V30 2 C -0.9342 0.347 2.4981 0
M  V30 3 C 1.1536 0.18 3.7541 0
M  V30 4 N -2.2313 0.4391 2.1674 0
M  V30 5 C 0.1535 0.3232 1.6343 0
M  V30 6 C 1.3822 0.2005 2.3905 0
M  V30 7 C 2.2031 0.0712 4.8108 0
M  V30 8 C -2.4498 0.5206 0.8492 0
M  V30 9 C -0.1899 0.4288 0.2781 0
M  V30 10 C 2.7961 0.1443 1.8841 0
M  V30 11 O 3.4888 0.3593 4.2373 0
M  V30 12 N -1.481 0.5178 -0.0897 0
M  V30 13 N -3.8163 0.614 0.3841 0
M  V30 14 S 1.0413 0.4368 -0.9913 0
M  V30 15 C 3.784 -0.3108 2.9939 0
M  V30 16 N -4.0909 0.6238 -0.9579 0
M  V30 17 C -4.9896 0.698 1.1311 0
M  V30 18 C 0.0086 0.8549 -2.4373 0
M  V30 19 C 5.2037 0.13 2.6099 0
M  V30 20 C 3.7847 -1.8387 3.1708 0
M  V30 21 C -5.419 0.7166 -1.046 0
M  V30 22 C -6.0249 0.764 0.2214 0
M  V30 23 C -5.0486 0.7148 2.6149 0
M  V30 24 C 0.8864 0.8771 -3.6778 0
M  V30 25 C -6.075 0.7578 -2.375 0
M  V30 26 O 1.3401 1.9337 -4.1073 0
M  V30 27 N 1.0817 -0.3836 -4.2027 0
M  V30 28 C 1.8094 -0.7203 -5.3131 0
M  V30 29 S 2.6157 0.4206 -6.2873 0
M  V30 30 N 1.9204 -1.9748 -5.6865 0
M  V30 31 C 3.1681 -0.8443 -7.3018 0
M  V30 32 C 2.6985 -2.049 -6.8261 0
M  V30 33 H 2.2197 -0.9273 5.2592 0
M  V30 34 H 2.0352 0.8002 5.6103 0
M  V30 35 H 3.0562 1.1578 1.5508 0
M  V30 36 H 2.8832 -0.5279 1.0247 0
M  V30 37 H -0.4434 1.844 -2.3098 0
M  V30 38 H -0.7891 0.1168 -2.5723 0
M  V30 39 H 5.9248 -0.1633 3.3817 0
M  V30 40 H 5.519 -0.3052 1.656 0
M  V30 41 H 5.2661 1.2217 2.5309 0
M  V30 42 H 4.1538 -2.3429 2.2711 0
M  V30 43 H 4.4179 -2.1294 4.0167 0
M  V30 44 H 2.7844 -2.2315 3.3794 0
M  V30 45 H -7.0798 0.8393 0.448 0
M  V30 46 H -4.4896 1.5631 3.0222 0
M  V30 47 H -6.0846 0.8143 2.9573 0
M  V30 48 H -4.656 -0.216 3.0348 0
M  V30 49 H -7.1626 0.8351 -2.2764 0
M  V30 50 H -5.8502 -0.1508 -2.9426 0
M  V30 51 H -5.7249 1.6215 -2.9497 0
M  V30 52 H 0.6859 -1.1862 -3.7324 0
M  V30 53 H 3.7872 -0.6518 -8.1658 0
M  V30 54 H 2.8941 -3.016 -7.2736 0
M  V30 END ATOM
M  V30 BEGIN BOND
M  V30 1 1 1 2
M  V30 2 1 1 3
M  V30 3 2 2 4
M  V30 4 1 2 5
M  V30 5 2 3 6
M  V30 6 1 3 7
M  V30 7 1 4 8
M  V30 8 2 5 9
M  V30 9 1 6 10
M  V30 10 1 7 11
M  V30 11 2 8 12
M  V30 12 1 8 13
M  V30 13 1 9 14
M  V30 14 1 10 15
M  V30 15 1 13 16
M  V30 16 1 13 17
M  V30 17 1 14 18
M  V30 18 1 15 19
M  V30 19 1 15 20
M  V30 20 2 16 21
M  V30 21 2 17 22
M  V30 22 1 17 23
M  V30 23 1 18 24
M  V30 24 1 21 25
M  V30 25 2 24 26
M  V30 26 1 24 27
M  V30 27 1 27 28
M  V30 28 1 28 29
M  V30 29 2 28 30
M  V30 30 1 29 31
M  V30 31 1 30 32
M  V30 32 1 5 6
M  V30 33 1 9 12
M  V30 34 1 11 15
M  V30 35 1 21 22
M  V30 36 2 31 32
M  V30 37 1 7 33
M  V30 38 1 7 34
M  V30 39 1 10 35
M  V30 40 1 10 36
M  V30 41 1 18 37
M  V30 42 1 18 38
M  V30 43 1 19 39
M  V30 44 1 19 40
M  V30 45 1 19 41
M  V30 46 1 20 42
M  V30 47 1 20 43
M  V30 48 1 20 44
M  V30 49 1 22 45
M  V30 50 1 23 46
M  V30 51 1 23 47
M  V30 52 1 23 48
M  V30 53 1 25 49
M  V30 54 1 25 50
M  V30 55 1 25 51
M  V30 56 1 27 52
M  V30 57 1 31 53
M  V30 58 1 32 54
M  V30 END BOND
M  V30 END CTAB
M  END
>  <ID>
665681

>  <Stereo Isomer>
1

>  <Energy>
61.384

>  <Error>


$$$$
661390
Actelion Java MolfileCreator 2.0

  0  0  0  0  0  0              0 V3000
M  V30 BEGIN CTAB
M  V30 COUNTS 28 30 0 0 0
M  V30 BEGIN ATOM
M  V30 1 O -1.2804 -0.72 -0.8001 0
M  V30 2 C -0.1111 -0.1715 -0.2796 0
M  V30 3 C -1.906 -0.0188 -1.8019 0
M  V30 4 N 0.5383 0.8011 -0.9461 0
M  V30 5 C 0.3311 -0.7175 0.9015 0
M  V30 6 C -2.4971 1.2225 -1.5595 0
M  V30 7 C -2.0246 -0.6267 -3.0514 0
M  V30 8 C 1.6649 1.2408 -0.3787 0
M  V30 9 C 1.5051 -0.1884 1.3979 0
M  V30 10 C -3.1773 1.8757 -2.5878 0
M  V30 11 C -2.7057 0.0286 -4.0775 0
M  V30 12 N 2.1914 0.7991 0.7706 0
M  V30 13 N 2.0265 -0.6988 2.6231 0
M  V30 14 C -3.279 1.28 -3.8462 0
M  V30 15 N 1.4039 -1.6855 3.3264 0
M  V30 16 C 3.1842 -0.2884 3.2518 0
M  V30 17 C 2.1868 -1.8788 4.3897 0
M  V30 18 C 3.3097 -1.0372 4.3965 0
M  V30 19 H -0.2174 -1.5087 1.3951 0
M  V30 20 H -2.4263 1.6824 -0.5786 0
M  V30 21 H -1.5834 -1.6034 -3.2266 0
M  V30 22 H 2.2018 2.0273 -0.898 0
M  V30 23 H -3.6297 2.8472 -2.4076 0
M  V30 24 H -2.7913 -0.4362 -5.056 0
M  V30 25 H -3.809 1.7903 -4.6465 0
M  V30 26 H 3.8 0.4905 2.8244 0
M  V30 27 H 1.9046 -2.6285 5.1185 0
M  V30 28 H 4.1008 -0.9817 5.1307 0
M  V30 END ATOM
M  V30 BEGIN BOND
M  V30 1 1 1 2
M  V30 2 1 1 3
M  V30 3 2 2 4
M  V30 4 1 2 5
M  V30 5 2 3 6
M  V30 6 1 3 7
M  V30 7 1 4 8
M  V30 8 2 5 9
M  V30 9 1 6 10
M  V30 10 2 7 11
M  V30 11 2 8 12
M  V30 12 1 9 13
M  V30 13 2 10 14
M  V30 14 1 13 15
M  V30 15 1 13 16
M  V30 16 2 15 17
M  V30 17 2 16 18
M  V30 18 1 9 12
M  V30 19 1 11 14
M  V30 20 1 17 18
M  V30 21 1 5 19
M  V30 22 1 6 20
M  V30 23 1 7 21
M  V30 24 1 8 22
M  V30 25 1 10 23
M  V30 26 1 11 24
M  V30 27 1 14 25
M  V30 28 1 16 26
M  V30 29 1 17 27
M  V30 30 1 18 28
M  V30 END BOND
M  V30 END CTAB
M  END
>  <ID>
661390

>  <Stereo Isomer>
1

>  <Energy>
30.135

>  <Error>


$$$$
662981
Actelion Java MolfileCreator 2.0

  0  0  0  0  0  0              0 V3000
M  V30 BEGIN CTAB
M  V30 COUNTS 45 47 0 0 0
M  V30 BEGIN ATOM
M  V30 1 O 3.1812 1.5101 0.1588 0
M  V30 2 C 2.3246 1.2666 0.9903 0
M  V30 3 O 2.4931 1.332 2.3386 0
M  V30 4 C 0.9459 0.829 0.7082 0
M  V30 5 C 3.8087 1.7304 2.7477 0
M  V30 6 C 0.5898 0.0183 -0.3602 0
M  V30 7 C -0.0887 1.3134 1.4873 0
M  V30 8 C 3.8432 1.7592 4.2631 0
M  V30 9 N -0.7153 -0.2372 -0.6072 0
M  V30 10 N 1.5057 -0.567 -1.2241 0
M  V30 11 N -1.3927 1.0477 1.2711 0
M  V30 12 C -1.6694 0.2721 0.2048 0
M  V30 13 C 2.4951 -1.5026 -0.6655 0
M  V30 14 C 0.9998 -0.9733 -2.5486 0
M  V30 15 N -3.0497 -0.0353 -0.0975 0
M  V30 16 C 3.613 -1.7487 -1.6905 0
M  V30 17 C 2.179 -1.2578 -3.4927 0
M  V30 18 N -3.3721 -0.8006 -1.1861 0
M  V30 19 C -4.1985 0.3513 0.5917 0
M  V30 20 O 3.0845 -2.2276 -2.9383 0
M  V30 21 C -4.7027 -0.8902 -1.176 0
M  V30 22 C -5.2653 -0.1925 -0.0932 0
M  V30 23 C -4.2064 1.1863 1.8189 0
M  V30 24 C -5.4029 -1.6605 -2.2313 0
M  V30 25 H 4.0319 2.7278 2.3528 0
M  V30 26 H 4.5453 1.0105 2.3737 0
M  V30 27 H 0.0974 1.9711 2.3329 0
M  V30 28 H 4.8305 2.0593 4.6254 0
M  V30 29 H 3.0957 2.4587 4.6524 0
M  V30 30 H 3.6003 0.7732 4.673 0
M  V30 31 H 2.9438 -1.144 0.2645 0
M  V30 32 H 1.9911 -2.452 -0.4436 0
M  V30 33 H 0.3931 -1.8818 -2.444 0
M  V30 34 H 0.3814 -0.1851 -2.9952 0
M  V30 35 H 4.3032 -2.5087 -1.3109 0
M  V30 36 H 4.1894 -0.8339 -1.8736 0
M  V30 37 H 1.8069 -1.6561 -4.4418 0
M  V30 38 H 2.7359 -0.3388 -3.712 0
M  V30 39 H -6.3125 -0.0961 0.1591 0
M  V30 40 H -3.7764 2.174 1.6261 0
M  V30 41 H -5.232 1.3421 2.1714 0
M  V30 42 H -3.6553 0.7003 2.6299 0
M  V30 43 H -6.4871 -1.642 -2.0802 0
M  V30 44 H -5.078 -2.7059 -2.2237 0
M  V30 45 H -5.1917 -1.2385 -3.2192 0
M  V30 END ATOM
M  V30 BEGIN BOND
M  V30 1 2 1 2
M  V30 2 1 2 3
M  V30 3 1 2 4
M  V30 4 1 3 5
M  V30 5 2 4 6
M  V30 6 1 4 7
M  V30 7 1 5 8
M  V30 8 1 6 9
M  V30 9 1 6 10
M  V30 10 2 7 11
M  V30 11 2 9 12
M  V30 12 1 10 13
M  V30 13 1 10 14
M  V30 14 1 12 15
M  V30 15 1 13 16
M  V30 16 1 14 17
M  V30 17 1 15 18
M  V30 18 1 15 19
M  V30 19 1 16 20
M  V30 20 2 18 21
M  V30 21 2 19 22
M  V30 22 1 19 23
M  V30 23 1 21 24
M  V30 24 1 11 12
M  V30 25 1 17 20
M  V30 26 1 21 22
M  V30 27 1 5 25
M  V30 28 1 5 26
M  V30 29 1 7 27
M  V30 30 1 8 28
M  V30 31 1 8 29
M  V30 32 1 8 30
M  V30 33 1 13 31
M  V30 34 1 13 32
M  V30 35 1 14 33
M  V30 36 1 14 34
M  V30 37 1 16 35
M  V30 38 1 16 36
M  V30 39 1 17 37
M  V30 40 1 17 38
M  V30 41 1 22 39
M  V30 42 1 23 40
M  V30 43 1 23 41
M  V30 44 1 23 42
M  V30 45 1 24 43
M  V30 46 1 24 44
M  V30 47 1 24 45
M  V30 END BOND
M  V30 END CTAB
M  END
>  <ID>
662981

>  <Stereo Isomer>
1

>  <Energy>
129.06

>  <Error>


$$$$
791112
Actelion Java MolfileCreator 2.0

  0  0  0  0  0  0              0 V3000
M  V30 BEGIN CTAB
M  V30 COUNTS 41 43 0 0 0
M  V30 BEGIN ATOM
M  V30 1 N 2.8438 -1.5001 -1.5791 0
M  V30 2 C 2.1049 -0.4513 -1.154 0
M  V30 3 C 2.39 -2.7082 -1.2345 0
M  V30 4 N 2.5296 0.881 -1.4752 0
M  V30 5 C 0.9444 -0.6154 -0.4152 0
M  V30 6 N 1.284 -2.964 -0.5254 0
M  V30 7 N 1.7442 1.9524 -1.1581 0
M  V30 8 C 3.6959 1.2905 -2.1131 0
M  V30 9 C 0.5517 -1.9064 -0.1328 0
M  V30 10 C 2.412 3.0224 -1.5939 0
M  V30 11 C 3.6308 2.666 -2.196 0
M  V30 12 C 4.7672 0.3774 -2.5848 0
M  V30 13 N -0.5883 -2.2197 0.6039 0
M  V30 14 C 1.8438 4.3796 -1.4124 0
M  V30 15 C -1.7495 -1.5161 0.9631 0
M  V30 16 C -2.4231 -1.8393 2.1612 0
M  V30 17 C -2.2509 -0.4632 0.1855 0
M  V30 18 C -3.5758 -1.1228 2.5344 0
M  V30 19 C -1.9304 -2.9392 3.0643 0
M  V30 20 C -3.3939 0.2457 0.5668 0
M  V30 21 C -4.0735 -0.0864 1.7384 0
M  V30 22 C -5.2808 0.6922 2.1678 0
M  V30 23 H 2.9719 -3.5642 -1.5589 0
M  V30 24 H 0.3854 0.2342 -0.0468 0
M  V30 25 H 4.3708 3.3222 -2.6336 0
M  V30 26 H 4.3968 -0.2927 -3.3664 0
M  V30 27 H 5.5979 0.9487 -3.0139 0
M  V30 28 H 5.1739 -0.2139 -1.7588 0
M  V30 29 H -0.6112 -3.2134 0.7985 0
M  V30 30 H 0.8774 4.4626 -1.9203 0
M  V30 31 H 1.6967 4.5954 -0.3492 0
M  V30 32 H 2.5095 5.1449 -1.8243 0
M  V30 33 H -1.7796 -0.1974 -0.7565 0
M  V30 34 H -4.0884 -1.3738 3.4614 0
M  V30 35 H -2.0226 -3.9084 2.5637 0
M  V30 36 H -2.5084 -2.9878 3.9934 0
M  V30 37 H -0.885 -2.7676 3.3407 0
M  V30 38 H -3.7503 1.0548 -0.0665 0
M  V30 39 H -5.9761 0.0576 2.7272 0
M  V30 40 H -4.9786 1.5316 2.8017 0
M  V30 41 H -5.824 1.0819 1.3003 0
M  V30 END ATOM
M  V30 BEGIN BOND
M  V30 1 2 1 2
M  V30 2 1 1 3
M  V30 3 1 2 4
M  V30 4 1 2 5
M  V30 5 2 3 6
M  V30 6 1 4 7
M  V30 7 1 4 8
M  V30 8 2 5 9
M  V30 9 2 7 10
M  V30 10 2 8 11
M  V30 11 1 8 12
M  V30 12 1 9 13
M  V30 13 1 10 14
M  V30 14 1 13 15
M  V30 15 2 15 16
M  V30 16 1 15 17
M  V30 17 1 16 18
M  V30 18 1 16 19
M  V30 19 2 17 20
M  V30 20 2 18 21
M  V30 21 1 21 22
M  V30 22 1 6 9
M  V30 23 1 10 11
M  V30 24 1 20 21
M  V30 25 1 3 23
M  V30 26 1 5 24
M  V30 27 1 11 25
M  V30 28 1 12 26
M  V30 29 1 12 27
M  V30 30 1 12 28
M  V30 31 1 13 29
M  V30 32 1 14 30
M  V30 33 1 14 31
M  V30 34 1 14 32
M  V30 35 1 17 33
M  V30 36 1 18 34
M  V30 37 1 19 35
M  V30 38 1 19 36
M  V30 39 1 19 37
M  V30 40 1 20 38
M  V30 41 1 22 39
M  V30 42 1 22 40
M  V30 43 1 22 41
M  V30 END BOND
M  V30 END CTAB
M  END
>  <ID>
791112

>  <Stereo Isomer>
1

>  <Energy>
10.701

>  <Error>


$$$$
91897183
Actelion Java MolfileCreator 2.0

  0  0  0  0  0  0              0 V3000
M  V30 BEGIN CTAB
M  V30 COUNTS 43 45 0 0 0
M  V30 BEGIN ATOM
M  V30 1 O -2.3968 1.6773 -3.3567 0
M  V30 2 N -1.2649 2.0512 -3.694 0 CHG=1
M  V30 3 O -0.4887 1.4184 -4.422 0 CHG=-1
M  V30 4 C -0.8204 3.3504 -3.2106 0
M  V30 5 C 0.3712 3.4757 -2.4711 0
M  V30 6 C -1.6262 4.4569 -3.5136 0
M  V30 7 C 0.7436 4.7647 -2.0559 0
M  V30 8 C 1.2365 2.2937 -2.0992 0
M  V30 9 C -1.2332 5.7226 -3.0854 0
M  V30 10 C -0.0506 5.8752 -2.3617 0
M  V30 11 N 0.4795 1.3091 -1.3131 0
M  V30 12 N 0.9912 0.1694 -1.3641 0
M  V30 13 C 0.2065 -0.7473 -0.6437 0
M  V30 14 N 0.7409 -1.178 0.5124 0
M  V30 15 C -1.003 -1.1896 -1.1365 0
M  V30 16 C 0.0179 -2.0713 1.2137 0
M  V30 17 C -1.6783 -2.101 -0.3612 0
M  V30 18 N -1.183 -2.5464 0.8079 0
M  V30 19 N 0.5499 -2.5547 2.4695 0
M  V30 20 C -3.0067 -2.6371 -0.7999 0
M  V30 21 N -0.1418 -3.4687 3.2178 0
M  V30 22 C 1.7504 -2.2144 3.0938 0
M  V30 23 C 0.6148 -3.6962 4.2916 0
M  V30 24 C 1.8007 -2.9428 4.2643 0
M  V30 25 C 2.7402 -1.249 2.5533 0
M  V30 26 C 0.1611 -4.6516 5.3301 0
M  V30 27 H -2.5494 4.34 -4.0772 0
M  V30 28 H 1.6547 4.9178 -1.4793 0
M  V30 29 H 1.6549 1.8537 -3.0136 0
M  V30 30 H 2.0907 2.6281 -1.4975 0
M  V30 31 H -1.8471 6.5912 -3.313 0
M  V30 32 H 0.2533 6.8651 -2.0267 0
M  V30 33 H -1.3934 -0.8308 -2.0796 0
M  V30 34 H -3.7271 -1.8205 -0.9087 0
M  V30 35 H -2.9069 -3.1587 -1.7569 0
M  V30 36 H -3.4031 -3.3456 -0.0655 0
M  V30 37 H 2.5929 -2.929 5.0001 0
M  V30 38 H 2.3009 -0.2525 2.4452 0
M  V30 39 H 3.5948 -1.1545 3.2321 0
M  V30 40 H 3.13 -1.5833 1.5868 0
M  V30 41 H 0.889 -4.7248 6.1443 0
M  V30 42 H 0.0305 -5.6507 4.9021 0
M  V30 43 H -0.7934 -4.3295 5.7578 0
M  V30 END ATOM
M  V30 BEGIN BOND
M  V30 1 2 1 2
M  V30 2 1 2 3
M  V30 3 1 2 4
M  V30 4 2 4 5
M  V30 5 1 4 6
M  V30 6 1 5 7
M  V30 7 1 5 8
M  V30 8 2 6 9
M  V30 9 2 7 10
M  V30 10 1 8 11
M  V30 11 2 11 12
M  V30 12 1 12 13
M  V30 13 2 13 14
M  V30 14 1 13 15
M  V30 15 1 14 16
M  V30 16 2 15 17
M  V30 17 2 16 18
M  V30 18 1 16 19
M  V30 19 1 17 20
M  V30 20 1 19 21
M  V30 21 1 19 22
M  V30 22 2 21 23
M  V30 23 2 22 24
M  V30 24 1 22 25
M  V30 25 1 23 26
M  V30 26 1 9 10
M  V30 27 1 17 18
M  V30 28 1 23 24
M  V30 29 1 6 27
M  V30 30 1 7 28
M  V30 31 1 8 29
M  V30 32 1 8 30
M  V30 33 1 9 31
M  V30 34 1 10 32
M  V30 35 1 15 33
M  V30 36 1 20 34
M  V30 37 1 20 35
M  V30 38 1 20 36
M  V30 39 1 24 37
M  V30 40 1 25 38
M  V30 41 1 25 39
M  V30 42 1 25 40
M  V30 43 1 26 41
M  V30 44 1 26 42
M  V30 45 1 26 43
M  V30 END BOND
M  V30 END CTAB
M  END
>  <ID>
91897183

>  <Stereo Isomer>
1

>  <Energy>
111.02

>  <Error>


$$$$
71727581
Actelion Java MolfileCreator 2.0

  0  0  0  0  0  0              0 V3000
M  V30 BEGIN CTAB
M  V30 COUNTS 49 52 0 0 0
M  V30 BEGIN ATOM
M  V30 1 Cl 3.8772 -1.0489 7.2792 0
M  V30 2 C 2.7249 -1.3062 6.027 0
M  V30 3 C 3.0862 -1.9449 4.8457 0
M  V30 4 C 1.4145 -0.8629 6.1994 0
M  V30 5 F 4.3426 -2.374 4.6546 0
M  V30 6 C 2.1483 -2.1471 3.8356 0
M  V30 7 C 0.4673 -1.0614 5.1874 0
M  V30 8 C 0.8187 -1.7118 3.9926 0
M  V30 9 C -0.1614 -1.9379 2.8406 0 CFG=2
M  V30 10 N 0.0993 -0.9843 1.7371 0
M  V30 11 C -1.6588 -1.9783 3.2448 0
M  V30 12 C 0.5824 -1.4923 0.5306 0
M  V30 13 C -0.1335 0.3716 1.9102 0
M  V30 14 O -2.4652 -2.4668 2.1738 0
M  V30 15 O 0.8755 -2.6671 0.3234 0
M  V30 16 C 0.7846 -0.5082 -0.5637 0
M  V30 17 C 0.0803 1.2483 0.9226 0
M  V30 18 C 0.5526 0.8007 -0.3722 0
M  V30 19 C 0.8 1.7153 -1.5019 0
M  V30 20 N 0.0569 1.5157 -2.6102 0
M  V30 21 C 1.7531 2.7033 -1.4037 0
M  V30 22 C 0.2665 2.329 -3.6521 0
M  V30 23 C 1.9052 3.4803 -2.5208 0
M  V30 24 N 1.179 3.3156 -3.6408 0
M  V30 25 N -0.4903 2.2535 -4.8226 0
M  V30 26 C -1.5558 1.4846 -5.1479 0
M  V30 27 N -1.8043 0.1814 -4.7672 0
M  V30 28 C -2.601 1.8194 -5.9855 0
M  V30 29 N -2.9844 -0.2905 -5.2414 0
M  V30 30 C -0.9437 -0.7594 -4.0914 0
M  V30 31 C -3.4556 0.7078 -5.985 0
M  V30 32 H 1.1237 -0.3591 7.1182 0
M  V30 33 H 2.4646 -2.6456 2.9206 0
M  V30 34 H -0.5418 -0.6918 5.353 0
M  V30 35 H 0.0464 -2.9503 2.4684 0
M  V30 36 H -2.0355 -0.9897 3.5256 0
M  V30 37 H -1.8016 -2.6534 4.0961 0
M  V30 38 H -0.498 0.7033 2.8767 0
M  V30 39 H -3.3889 -2.4718 2.4768 0
M  V30 40 H 1.1378 -0.9187 -1.5021 0
M  V30 41 H -0.121 2.305 1.069 0
M  V30 42 H 2.3541 2.8539 -0.5177 0
M  V30 43 H 2.6349 4.2841 -2.5541 0
M  V30 44 H -0.2631 3.074 -5.3741 0
M  V30 45 H -2.7438 2.7574 -6.5009 0
M  V30 46 H -1.1243 -1.759 -4.4986 0
M  V30 47 H 0.1016 -0.502 -4.2699 0
M  V30 48 H -1.1928 -0.7504 -3.0287 0
M  V30 49 H -4.4 0.5805 -6.4975 0
M  V30 END ATOM
M  V30 BEGIN BOND
M  V30 1 1 1 2
M  V30 2 2 2 3
M  V30 3 1 2 4
M  V30 4 1 3 5
M  V30 5 1 3 6
M  V30 6 2 4 7
M  V30 7 2 6 8
M  V30 8 1 8 9
M  V30 9 1 9 10
M  V30 10 1 9 11
M  V30 11 1 10 12
M  V30 12 1 10 13
M  V30 13 1 11 14
M  V30 14 2 12 15
M  V30 15 1 12 16
M  V30 16 2 13 17
M  V30 17 2 16 18
M  V30 18 1 18 19
M  V30 19 2 19 20
M  V30 20 1 19 21
M  V30 21 1 20 22
M  V30 22 2 21 23
M  V30 23 2 22 24
M  V30 24 1 22 25
M  V30 25 1 25 26
M  V30 26 1 26 27
M  V30 27 2 26 28
M  V30 28 1 27 29
M  V30 29 1 27 30
M  V30 30 1 28 31
M  V30 31 1 7 8
M  V30 32 1 17 18
M  V30 33 1 23 24
M  V30 34 2 29 31
M  V30 35 1 4 32
M  V30 36 1 6 33
M  V30 37 1 7 34
M  V30 38 1 9 35
M  V30 39 1 11 36
M  V30 40 1 11 37
M  V30 41 1 13 38
M  V30 42 1 14 39
M  V30 43 1 16 40
M  V30 44 1 17 41
M  V30 45 1 21 42
M  V30 46 1 23 43
M  V30 47 1 25 44
M  V30 48 1 28 45
M  V30 49 1 30 46
M  V30 50 1 30 47
M  V30 51 1 30 48
M  V30 52 1 31 49
M  V30 END BOND
M  V30 BEGIN COLLECTION
M  V30 MDLV30/STEABS ATOMS=(1 9)
M  V30 END COLLECTION
M  V30 END CTAB
M  END
>  <ID>
71727581

>  <Stereo Isomer>
1

>  <Energy>
16.773

>  <Error>


$$$$
91898297
Actelion Java MolfileCreator 2.0

  0  0  0  0  0  0              0 V3000
M  V30 BEGIN CTAB
M  V30 COUNTS 41 43 0 0 0
M  V30 BEGIN ATOM
M  V30 1 F -7.1953 -2.5538 -1.835 0
M  V30 2 C -6.2957 -1.6974 -1.3332 0
M  V30 3 C -5.9998 -0.5307 -2.0277 0
M  V30 4 C -5.6679 -1.9924 -0.1288 0
M  V30 5 C -5.0608 0.3609 -1.5076 0
M  V30 6 C -4.7286 -1.1023 0.3935 0
M  V30 7 C -4.4246 0.0876 -0.2861 0
M  V30 8 C -3.3866 1.037 0.265 0
M  V30 9 N -2.0503 0.7523 -0.2789 0
M  V30 10 N -1.3364 0.1047 0.5187 0
M  V30 11 C -0.0802 -0.1692 -0.0498 0
M  V30 12 N 0.9679 0.3633 0.6021 0
M  V30 13 C 0.0463 -0.9741 -1.1632 0
M  V30 14 C 2.1893 0.0996 0.1006 0
M  V30 15 C 1.3263 -1.1975 -1.6112 0
M  V30 16 N 2.3984 -0.6691 -0.9938 0
M  V30 17 N 3.3444 0.6628 0.7653 0
M  V30 18 C 1.5743 -2.0517 -2.8168 0
M  V30 19 N 4.6093 0.4054 0.3087 0
M  V30 20 C 3.3843 1.4921 1.8866 0
M  V30 21 C 5.426 1.0625 1.133 0
M  V30 22 C 4.7169 1.7533 2.1306 0
M  V30 23 C 2.1898 1.968 2.629 0
M  V30 24 C 6.8929 1.0023 0.9281 0
M  V30 25 H -6.4987 -0.3253 -2.9694 0
M  V30 26 H -5.9106 -2.9129 0.3919 0
M  V30 27 H -4.8249 1.2684 -2.0598 0
M  V30 28 H -4.231 -1.3417 1.3313 0
M  V30 29 H -3.658 2.0652 -0.0036 0
M  V30 30 H -3.3951 1.0076 1.3633 0
M  V30 31 H -0.8206 -1.3996 -1.6502 0
M  V30 32 H 1.0761 -1.6242 -3.6925 0
M  V30 33 H 2.6453 -2.1193 -3.0336 0
M  V30 34 H 1.1966 -3.0649 -2.647 0
M  V30 35 H 5.1202 2.3646 2.9262 0
M  V30 36 H 1.6292 1.1292 3.053 0
M  V30 37 H 2.4877 2.6133 3.463 0
M  V30 38 H 1.5325 2.5575 1.9825 0
M  V30 39 H 7.4219 1.5896 1.6854 0
M  V30 40 H 7.16 1.4003 -0.0559 0
M  V30 41 H 7.2479 -0.0311 0.9926 0
M  V30 END ATOM
M  V30 BEGIN BOND
M  V30 1 1 1 2
M  V30 2 2 2 3
M  V30 3 1 2 4
M  V30 4 1 3 5
M  V30 5 2 4 6
M  V30 6 2 5 7
M  V30 7 1 7 8
M  V30 8 1 8 9
M  V30 9 2 9 10
M  V30 10 1 10 11
M  V30 11 2 11 12
M  V30 12 1 11 13
M  V30 13 1 12 14
M  V30 14 2 13 15
M  V30 15 2 14 16
M  V30 16 1 14 17
M  V30 17 1 15 18
M  V30 18 1 17 19
M  V30 19 1 17 20
M  V30 20 2 19 21
M  V30 21 2 20 22
M  V30 22 1 20 23
M  V30 23 1 21 24
M  V30 24 1 6 7
M  V30 25 1 15 16
M  V30 26 1 21 22
M  V30 27 1 3 25
M  V30 28 1 4 26
M  V30 29 1 5 27
M  V30 30 1 6 28
M  V30 31 1 8 29
M  V30 32 1 8 30
M  V30 33 1 13 31
M  V30 34 1 18 32
M  V30 35 1 18 33
M  V30 36 1 18 34
M  V30 37 1 22 35
M  V30 38 1 23 36
M  V30 39 1 23 37
M  V30 40 1 23 38
M  V30 41 1 24 39
M  V30 42 1 24 40
M  V30 43 1 24 41
M  V30 END BOND
M  V30 END CTAB
M  END
>  <ID>
91898297

>  <Stereo Isomer>
1

>  <Energy>
84.224

>  <Error>


$$$$
22758481
Actelion Java MolfileCreator 2.0

  0  0  0  0  0  0              0 V3000
M  V30 BEGIN CTAB
M  V30 COUNTS 34 38 0 0 0
M  V30 BEGIN ATOM
M  V30 1 N -0.892 -2.7592 -1.2166 0
M  V30 2 C -1.3393 -1.5321 -1.0963 0
M  V30 3 C 0.287 -3.0959 -0.6367 0
M  V30 4 N -2.5844 -1.311 -1.7495 0
M  V30 5 C -0.5626 -0.4831 -0.3215 0
M  V30 6 N 0.9143 -4.2526 -0.6308 0
M  V30 7 N 1.0414 -2.1927 0.0804 0
M  V30 8 N -3.1956 -0.1016 -1.7282 0
M  V30 9 C -3.3333 -2.227 -2.4677 0
M  V30 10 C 0.6535 -0.8698 0.2649 0
M  V30 11 C -0.9451 0.8415 -0.1354 0
M  V30 12 C 2.0399 -4.0033 0.0993 0
M  V30 13 N 2.1657 -2.7562 0.5585 0
M  V30 14 C -4.3171 -0.2714 -2.4308 0
M  V30 15 C -4.456 -1.5778 -2.9168 0
M  V30 16 C 1.4155 0.0548 0.9925 0
M  V30 17 N -0.2533 1.7881 0.5582 0
M  V30 18 C 0.8992 1.3376 1.0898 0
M  V30 19 C 2.6293 0.1129 1.7128 0
M  V30 20 N 1.8021 2.0522 1.8324 0
M  V30 21 N 2.8718 1.3243 2.2264 0
M  V30 22 C 1.699 3.4482 2.2042 0
M  V30 23 C 2.3583 4.3612 1.1863 0
M  V30 24 H -2.9929 -3.2469 -2.5868 0
M  V30 25 H -1.8634 1.2496 -0.5436 0
M  V30 26 H 2.7914 -4.7567 0.302 0
M  V30 27 H -4.9893 0.5679 -2.5598 0
M  V30 28 H -5.2584 -1.9925 -3.5104 0
M  V30 29 H 3.349 -0.6782 1.8847 0
M  V30 30 H 2.167 3.5657 3.188 0
M  V30 31 H 0.637 3.6931 2.3117 0
M  V30 32 H 1.8925 4.2555 0.2007 0
M  V30 33 H 3.4231 4.1285 1.0783 0
M  V30 34 H 2.2666 5.4063 1.4973 0
M  V30 END ATOM
M  V30 BEGIN BOND
M  V30 1 2 1 2
M  V30 2 1 1 3
M  V30 3 1 2 4
M  V30 4 1 2 5
M  V30 5 2 3 6
M  V30 6 1 3 7
M  V30 7 1 4 8
M  V30 8 1 4 9
M  V30 9 2 5 10
M  V30 10 1 5 11
M  V30 11 1 6 12
M  V30 12 1 7 13
M  V30 13 2 8 14
M  V30 14 2 9 15
M  V30 15 1 10 16
M  V30 16 2 11 17
M  V30 17 2 16 18
M  V30 18 1 16 19
M  V30 19 1 18 20
M  V30 20 2 19 21
M  V30 21 1 20 22
M  V30 22 1 22 23
M  V30 23 1 7 10
M  V30 24 2 12 13
M  V30 25 1 14 15
M  V30 26 1 17 18
M  V30 27 1 20 21
M  V30 28 1 9 24
M  V30 29 1 11 25
M  V30 30 1 12 26
M  V30 31 1 14 27
M  V30 32 1 15 28
M  V30 33 1 19 29
M  V30 34 1 22 30
M  V30 35 1 22 31
M  V30 36 1 23 32
M  V30 37 1 23 33
M  V30 38 1 23 34
M  V30 END BOND
M  V30 END CTAB
M  END
>  <ID>
22758481

>  <Stereo Isomer>
1

>  <Energy>
100.8

>  <Error>


$$$$
91897318
Actelion Java MolfileCreator 2.0

  0  0  0  0  0  0              0 V3000
M  V30 BEGIN CTAB
M  V30 COUNTS 49 51 0 0 0
M  V30 BEGIN ATOM
M  V30 1 O -0.6334 2.6944 2.9324 0
M  V30 2 C 0.7302 2.7034 3.0614 0
M  V30 3 C -1.4045 2.7557 4.1257 0
M  V30 4 C 1.4613 2.5567 1.8708 0
M  V30 5 C 1.4144 2.8515 4.273 0
M  V30 6 C 2.8649 2.5352 1.9257 0
M  V30 7 C 0.7751 2.3685 0.5368 0
M  V30 8 C 2.8133 2.8428 4.3192 0
M  V30 9 C 3.5369 2.6813 3.1411 0
M  V30 10 N 0.557 0.9419 0.2523 0
M  V30 11 O 3.3423 2.9971 5.5721 0
M  V30 12 N 0.2959 0.7363 -0.9522 0
M  V30 13 C 4.7606 3.008 5.6754 0
M  V30 14 C 0.0461 -0.6241 -1.2262 0
M  V30 15 N -0.8372 -0.8232 -2.2214 0
M  V30 16 C 0.6817 -1.6621 -0.5727 0
M  V30 17 C -1.1102 -2.0988 -2.5542 0
M  V30 18 C 0.3509 -2.9362 -0.9714 0
M  V30 19 N -0.5373 -3.1672 -1.9536 0
M  V30 20 N -2.0634 -2.3459 -3.6142 0
M  V30 21 C 0.9819 -4.127 -0.3169 0
M  V30 22 N -2.3396 -3.623 -4.0239 0
M  V30 23 C -2.8066 -1.4212 -4.3483 0
M  V30 24 C -3.2396 -3.4969 -4.9996 0
M  V30 25 C -3.5638 -2.151 -5.2411 0
M  V30 26 C -2.7517 0.0498 -4.1566 0
M  V30 27 C -3.7691 -4.7021 -5.6807 0
M  V30 28 H -1.1868 1.907 4.7824 0
M  V30 29 H -2.4601 2.6954 3.8441 0
M  V30 30 H -1.2529 3.7085 4.6434 0
M  V30 31 H 0.8845 2.9773 5.2116 0
M  V30 32 H 3.4439 2.4015 1.0139 0
M  V30 33 H -0.1812 2.9043 0.5143 0
M  V30 34 H 1.3944 2.8264 -0.2467 0
M  V30 35 H 4.6214 2.6617 3.1309 0
M  V30 36 H 5.1871 2.0531 5.3512 0
M  V30 37 H 5.0178 3.1462 6.73 0
M  V30 38 H 5.1911 3.8448 5.1154 0
M  V30 39 H 1.403 -1.4807 0.2126 0
M  V30 40 H 0.7553 -4.1347 0.7534 0
M  V30 41 H 2.0674 -4.1037 -0.4547 0
M  V30 42 H 0.6031 -5.0576 -0.7518 0
M  V30 43 H -4.2601 -1.7583 -5.9693 0
M  V30 44 H -1.75 0.4373 -4.3659 0
M  V30 45 H -3.4434 0.5524 -4.8418 0
M  V30 46 H -3.0457 0.3265 -3.1395 0
M  V30 47 H -4.4947 -4.4317 -6.4546 0
M  V30 48 H -4.2693 -5.3605 -4.9631 0
M  V30 49 H -2.958 -5.2613 -6.1582 0
M  V30 END ATOM
M  V30 BEGIN BOND
M  V30 1 1 1 2
M  V30 2 1 1 3
M  V30 3 2 2 4
M  V30 4 1 2 5
M  V30 5 1 4 6
M  V30 6 1 4 7
M  V30 7 2 5 8
M  V30 8 2 6 9
M  V30 9 1 7 10
M  V30 10 1 8 11
M  V30 11 2 10 12
M  V30 12 1 11 13
M  V30 13 1 12 14
M  V30 14 2 14 15
M  V30 15 1 14 16
M  V30 16 1 15 17
M  V30 17 2 16 18
M  V30 18 2 17 19
M  V30 19 1 17 20
M  V30 20 1 18 21
M  V30 21 1 20 22
M  V30 22 1 20 23
M  V30 23 2 22 24
M  V30 24 2 23 25
M  V30 25 1 23 26
M  V30 26 1 24 27
M  V30 27 1 8 9
M  V30 28 1 18 19
M  V30 29 1 24 25
M  V30 30 1 3 28
M  V30 31 1 3 29
M  V30 32 1 3 30
M  V30 33 1 5 31
M  V30 34 1 6 32
M  V30 35 1 7 33
M  V30 36 1 7 34
M  V30 37 1 9 35
M  V30 38 1 13 36
M  V30 39 1 13 37
M  V30 40 1 13 38
M  V30 41 1 16 39
M  V30 42 1 21 40
M  V30 43 1 21 41
M  V30 44 1 21 42
M  V30 45 1 25 43
M  V30 46 1 26 44
M  V30 47 1 26 45
M  V30 48 1 26 46
M  V30 49 1 27 47
M  V30 50 1 27 48
M  V30 51 1 27 49
M  V30 END BOND
M  V30 END CTAB
M  END
>  <ID>
91897318

>  <Stereo Isomer>
1

>  <Energy>
92.521

>  <Error>


$$$$
755243
Actelion Java MolfileCreator 2.0

  0  0  0  0  0  0              0 V3000
M  V30 BEGIN CTAB
M  V30 COUNTS 40 43 0 0 0
M  V30 BEGIN ATOM
M  V30 1 N -0.1602 -0.6411 -0.8816 0
M  V30 2 C 0.4751 0.5478 -0.8618 0
M  V30 3 C -0.6228 -1.1306 0.2879 0
M  V30 4 N 0.6754 1.2742 0.252 0
M  V30 5 N 0.9646 1.062 -2.1117 0
M  V30 6 C -1.3151 -2.4476 0.1979 0
M  V30 7 C -0.4459 -0.4266 1.4697 0
M  V30 8 C 0.2158 0.7902 1.4222 0
M  V30 9 N 1.623 2.2532 -2.2168 0
M  V30 10 C 0.8468 0.4504 -3.3475 0
M  V30 11 C -1.4547 -3.1017 -1.0449 0
M  V30 12 C -1.8616 -3.1106 1.315 0
M  V30 13 C 0.4748 1.6497 2.6112 0
M  V30 14 C 1.9044 2.3647 -3.5148 0
M  V30 15 C 1.4456 1.2715 -4.2775 0
M  V30 16 C -2.0981 -4.3383 -1.1681 0
M  V30 17 C -2.5071 -4.3489 1.1966 0
M  V30 18 C 1.1583 2.8768 2.4708 0
M  V30 19 C 0.0684 1.3076 3.9164 0
M  V30 20 C 1.5838 1.062 -5.7351 0
M  V30 21 C -2.6248 -4.9621 -0.0447 0
M  V30 22 C 1.4209 3.7118 3.5624 0
M  V30 23 C 0.3292 2.1409 5.0126 0
M  V30 24 C 1.0054 3.3424 4.8351 0
M  V30 25 H -0.8145 -0.8154 2.4051 0
M  V30 26 H 0.35 -0.5048 -3.4402 0
M  V30 27 H -1.0554 -2.6452 -1.9495 0
M  V30 28 H -1.803 -2.6851 2.3122 0
M  V30 29 H 2.4365 3.2441 -3.8562 0
M  V30 30 H -2.1843 -4.8081 -2.1445 0
M  V30 31 H -2.9173 -4.8324 2.0799 0
M  V30 32 H 1.5001 3.2007 1.4871 0
M  V30 33 H -0.4628 0.3835 4.121 0
M  V30 34 H 0.9624 0.2282 -6.0771 0
M  V30 35 H 2.6244 0.839 -5.9908 0
M  V30 36 H 1.278 1.9581 -6.2843 0
M  V30 37 H -3.1252 -5.9223 -0.1364 0
M  V30 38 H 1.9504 4.6485 3.4089 0
M  V30 39 H 0.0016 1.8467 6.0067 0
M  V30 40 H 1.2077 3.9887 5.6847 0
M  V30 END ATOM
M  V30 BEGIN BOND
M  V30 1 2 1 2
M  V30 2 1 1 3
M  V30 3 1 2 4
M  V30 4 1 2 5
M  V30 5 1 3 6
M  V30 6 2 3 7
M  V30 7 2 4 8
M  V30 8 1 5 9
M  V30 9 1 5 10
M  V30 10 2 6 11
M  V30 11 1 6 12
M  V30 12 1 8 13
M  V30 13 2 9 14
M  V30 14 2 10 15
M  V30 15 1 11 16
M  V30 16 2 12 17
M  V30 17 2 13 18
M  V30 18 1 13 19
M  V30 19 1 15 20
M  V30 20 2 16 21
M  V30 21 1 18 22
M  V30 22 2 19 23
M  V30 23 2 22 24
M  V30 24 1 7 8
M  V30 25 1 14 15
M  V30 26 1 17 21
M  V30 27 1 23 24
M  V30 28 1 7 25
M  V30 29 1 10 26
M  V30 30 1 11 27
M  V30 31 1 12 28
M  V30 32 1 14 29
M  V30 33 1 16 30
M  V30 34 1 17 31
M  V30 35 1 18 32
M  V30 36 1 19 33
M  V30 37 1 20 34
M  V30 38 1 20 35
M  V30 39 1 20 36
M  V30 40 1 21 37
M  V30 41 1 22 38
M  V30 42 1 23 39
M  V30 43 1 24 40
M  V30 END BOND
M  V30 END CTAB
M  END
>  <ID>
755243

>  <Stereo Isomer>
1

>  <Energy>
101.36

>  <Error>


$$$$
82120
Actelion Java MolfileCreator 2.0

  0  0  0  0  0  0              0 V3000
M  V30 BEGIN CTAB
M  V30 COUNTS 38 39 0 0 0
M  V30 BEGIN ATOM
M  V30 1 Br -3.6186 -1.2325 -0.4107 0
M  V30 2 C -2.2033 -0.3041 0.3806 0
M  V30 3 C -0.9684 -0.0376 -0.2066 0
M  V30 4 C -2.1467 0.2566 1.6334 0
M  V30 5 O -0.5607 -0.3867 -1.4315 0
M  V30 6 N -0.1468 0.6394 0.5851 0
M  V30 7 N -3.0495 0.3201 2.6604 0
M  V30 8 N -0.8697 0.8335 1.7239 0
M  V30 9 P 0.8665 -0.0349 -2.0942 0
M  V30 10 C -2.6682 0.9495 3.7339 0
M  V30 11 C -0.4718 1.5094 2.8864 0
M  V30 12 S 1.2893 1.8284 -2.4599 0
M  V30 13 O 0.824 -0.9848 -3.4139 0
M  V30 14 O 1.9056 -0.8788 -1.1798 0
M  V30 15 C -1.3305 1.5968 3.918 0
M  V30 16 C -3.6409 1.0377 4.8834 0
M  V30 17 C 0.9008 2.1071 2.9189 0
M  V30 18 C -0.134 -0.7008 -4.42 0
M  V30 19 C 3.2624 -0.9398 -1.5814 0
M  V30 20 C -0.2421 -1.9038 -5.3345 0
M  V30 21 C 3.9551 -2.0189 -0.7745 0
M  V30 22 H -1.105 2.1001 4.8485 0
M  V30 23 H -3.217 1.5853 5.729 0
M  V30 24 H -4.5476 1.5505 4.5492 0
M  V30 25 H -3.9028 0.0278 5.2118 0
M  V30 26 H 1.0175 2.8503 2.1229 0
M  V30 27 H 1.6629 1.3314 2.7874 0
M  V30 28 H 1.102 2.6093 3.8714 0
M  V30 29 H -1.1078 -0.4876 -3.9683 0
M  V30 30 H 0.191 0.1731 -4.9917 0
M  V30 31 H 3.3314 -1.17 -2.6491 0
M  V30 32 H 3.7389 0.0269 -1.3944 0
M  V30 33 H 0.7285 -2.1344 -5.7853 0
M  V30 34 H -0.968 -1.7237 -6.1324 0
M  V30 35 H -0.5498 -2.7903 -4.77 0
M  V30 36 H 3.8834 -1.8054 0.2969 0
M  V30 37 H 5.0108 -2.0951 -1.0496 0
M  V30 38 H 3.476 -2.99 -0.9385 0
M  V30 END ATOM
M  V30 BEGIN BOND
M  V30 1 1 1 2
M  V30 2 1 2 3
M  V30 3 2 2 4
M  V30 4 1 3 5
M  V30 5 2 3 6
M  V30 6 1 4 7
M  V30 7 1 4 8
M  V30 8 1 5 9
M  V30 9 2 7 10
M  V30 10 1 8 11
M  V30 11 2 9 12
M  V30 12 1 9 13
M  V30 13 1 9 14
M  V30 14 1 10 15
M  V30 15 1 10 16
M  V30 16 1 11 17
M  V30 17 1 13 18
M  V30 18 1 14 19
M  V30 19 1 18 20
M  V30 20 1 19 21
M  V30 21 1 6 8
M  V30 22 2 11 15
M  V30 23 1 15 22
M  V30 24 1 16 23
M  V30 25 1 16 24
M  V30 26 1 16 25
M  V30 27 1 17 26
M  V30 28 1 17 27
M  V30 29 1 17 28
M  V30 30 1 18 29
M  V30 31 1 18 30
M  V30 32 1 19 31
M  V30 33 1 19 32
M  V30 34 1 20 33
M  V30 35 1 20 34
M  V30 36 1 20 35
M  V30 37 1 21 36
M  V30 38 1 21 37
M  V30 39 1 21 38
M  V30 END BOND
M  V30 END CTAB
M  END
>  <ID>
82120

>  <Stereo Isomer>
1

>  <Energy>
-32.824

>  <Error>


$$$$
662721
Actelion Java MolfileCreator 2.0

  0  0  0  0  0  0              0 V3000
M  V30 BEGIN CTAB
M  V30 COUNTS 46 47 0 0 0
M  V30 BEGIN ATOM
M  V30 1 O 2.512 -1.4909 2.905 0
M  V30 2 C 2.2879 -1.174 1.7485 0
M  V30 3 O 3.1951 -1.0568 0.7501 0
M  V30 4 C 0.9418 -0.971 1.2159 0
M  V30 5 C 4.549 -1.2987 1.1512 0
M  V30 6 C 0.5051 0.1098 0.4645 0
M  V30 7 C 0.0499 -2.0056 1.4271 0
M  V30 8 C 5.4449 -1.0661 -0.0492 0
M  V30 9 N -0.7248 0.0528 -0.095 0
M  V30 10 N 1.2134 1.2814 0.2389 0
M  V30 11 N -1.1927 -2.0475 0.9124 0
M  V30 12 C -1.5406 -1.0021 0.138 0
M  V30 13 C 1.0377 1.921 -1.0712 0
M  V30 14 C 2.1904 1.8185 1.1861 0
M  V30 15 N -2.8463 -0.9978 -0.4835 0
M  V30 16 C -0.1264 2.9029 -1.1105 0
M  V30 17 C 2.0062 3.3055 1.4536 0
M  V30 18 N -3.1912 -0.023 -1.3812 0
M  V30 19 C -3.8938 -1.9026 -0.311 0
M  V30 20 C -4.4354 -0.3145 -1.7621 0
M  V30 21 C -4.9181 -1.4728 -1.129 0
M  V30 22 C -3.8546 -3.0758 0.5975 0
M  V30 23 C -5.1327 0.55 -2.7435 0
M  V30 24 H 4.6503 -2.3335 1.4965 0
M  V30 25 H 4.8259 -0.611 1.9583 0
M  V30 26 H 0.3272 -2.874 2.0211 0
M  V30 27 H 6.4938 -1.2392 0.2067 0
M  V30 28 H 5.167 -1.7323 -0.8725 0
M  V30 29 H 5.3351 -0.041 -0.4185 0
M  V30 30 H 1.957 2.4572 -1.3381 0
M  V30 31 H 0.9106 1.1647 -1.8573 0
M  V30 32 H 2.1087 1.3276 2.1615 0
M  V30 33 H 3.2033 1.6417 0.8077 0
M  V30 34 H -0.1889 3.3637 -2.1018 0
M  V30 35 H -0.0091 3.7063 -0.379 0
M  V30 36 H -1.0856 2.4177 -0.9121 0
M  V30 37 H 2.7091 3.6369 2.2252 0
M  V30 38 H 0.9923 3.5193 1.8067 0
M  V30 39 H 2.1964 3.9059 0.5591 0
M  V30 40 H -5.8879 -1.9366 -1.2478 0
M  V30 41 H -3.6595 -2.7694 1.6298 0
M  V30 42 H -4.8173 -3.599 0.5913 0
M  V30 43 H -3.0927 -3.7941 0.2797 0
M  V30 44 H -6.1433 0.1815 -2.9468 0
M  V30 45 H -4.5846 0.5752 -3.6909 0
M  V30 46 H -5.2158 1.5733 -2.3631 0
M  V30 END ATOM
M  V30 BEGIN BOND
M  V30 1 2 1 2
M  V30 2 1 2 3
M  V30 3 1 2 4
M  V30 4 1 3 5
M  V30 5 2 4 6
M  V30 6 1 4 7
M  V30 7 1 5 8
M  V30 8 1 6 9
M  V30 9 1 6 10
M  V30 10 2 7 11
M  V30 11 2 9 12
M  V30 12 1 10 13
M  V30 13 1 10 14
M  V30 14 1 12 15
M  V30 15 1 13 16
M  V30 16 1 14 17
M  V30 17 1 15 18
M  V30 18 1 15 19
M  V30 19 2 18 20
M  V30 20 2 19 21
M  V30 21 1 19 22
M  V30 22 1 20 23
M  V30 23 1 11 12
M  V30 24 1 20 21
M  V30 25 1 5 24
M  V30 26 1 5 25
M  V30 27 1 7 26
M  V30 28 1 8 27
M  V30 29 1 8 28
M  V30 30 1 8 29
M  V30 31 1 13 30
M  V30 32 1 13 31
M  V30 33 1 14 32
M  V30 34 1 14 33
M  V30 35 1 16 34
M  V30 36 1 16 35
M  V30 37 1 16 36
M  V30 38 1 17 37
M  V30 39 1 17 38
M  V30 40 1 17 39
M  V30 41 1 21 40
M  V30 42 1 22 41
M  V30 43 1 22 42
M  V30 44 1 22 43
M  V30 45 1 23 44
M  V30 46 1 23 45
M  V30 47 1 23 46
M  V30 END BOND
M  V30 END CTAB
M  END
>  <ID>
662721

>  <Stereo Isomer>
1

>  <Energy>
71.234

>  <Error>


$$$$
662273
Actelion Java MolfileCreator 2.0

  0  0  0  0  0  0              0 V3000
M  V30 BEGIN CTAB
M  V30 COUNTS 50 53 0 0 0
M  V30 BEGIN ATOM
M  V30 1 O -3.0346 0.718 2.0755 0
M  V30 2 C -3.1696 0.9264 0.8793 0
M  V30 3 O -4.3411 1.2078 0.2542 0
M  V30 4 C -2.0552 0.9176 -0.0916 0
M  V30 5 C -5.5069 1.2527 1.0926 0
M  V30 6 C -0.723 0.8864 0.3098 0
M  V30 7 C -2.282 0.9057 -1.4522 0
M  V30 8 C -5.6683 2.6382 1.6887 0
M  V30 9 N 0.2792 0.8774 -0.5985 0
M  V30 10 N -0.3782 0.9381 1.6506 0
M  V30 11 N -1.303 0.8809 -2.3755 0
M  V30 12 C -0.0346 0.8699 -1.9147 0
M  V30 13 C 0.9739 0.7391 2.117 0
M  V30 14 N 1.0368 0.8464 -2.8844 0
M  V30 15 C 1.1969 -0.7168 2.4533 0
M  V30 16 N 0.7829 0.5509 -4.1963 0
M  V30 17 C 2.3938 1.0971 -2.688 0
M  V30 18 C 1.6791 -1.6043 1.4768 0
M  V30 19 C 0.8812 -1.2069 3.7432 0
M  V30 20 C 1.9693 0.5861 -4.8043 0
M  V30 21 C 3.0034 0.9193 -3.9127 0
M  V30 22 C 3.0011 1.4895 -1.3931 0
M  V30 23 C 1.8451 -2.928 1.8242 0
M  V30 24 C 1.0603 -2.5559 4.0659 0
M  V30 25 C 2.0689 0.2981 -6.2549 0
M  V30 26 O 2.303 -3.9124 1.0052 0
M  V30 27 C 1.5456 -3.3904 3.0834 0
M  V30 28 C 2.2506 -5.0484 1.8923 0
M  V30 29 O 1.778 -4.7235 3.2161 0
M  V30 30 H -5.4666 0.4823 1.8712 0
M  V30 31 H -6.3673 1.0227 0.4558 0
M  V30 32 H -3.2841 0.91 -1.872 0
M  V30 33 H -6.5847 2.7008 2.2821 0
M  V30 34 H -4.8184 2.8914 2.3303 0
M  V30 35 H -5.7067 3.3947 0.898 0
M  V30 36 H -1.1227 0.7137 2.3119 0
M  V30 37 H 1.733 1.1022 1.4154 0
M  V30 38 H 1.1182 1.3359 3.0263 0
M  V30 39 H 1.9071 -1.2687 0.471 0
M  V30 40 H 0.4877 -0.531 4.5004 0
M  V30 41 H 4.0567 1.028 -4.1322 0
M  V30 42 H 2.9919 0.6523 -0.6901 0
M  V30 43 H 4.0467 1.7855 -1.533 0
M  V30 44 H 2.4808 2.3443 -0.9507 0
M  V30 45 H 0.8205 -2.9354 5.0525 0
M  V30 46 H 3.1066 0.3554 -6.5984 0
M  V30 47 H 1.4812 1.02 -6.831 0
M  V30 48 H 1.6953 -0.707 -6.4737 0
M  V30 49 H 3.257 -5.475 1.9748 0
M  V30 50 H 1.5843 -5.8024 1.4575 0
M  V30 END ATOM
M  V30 BEGIN BOND
M  V30 1 2 1 2
M  V30 2 1 2 3
M  V30 3 1 2 4
M  V30 4 1 3 5
M  V30 5 2 4 6
M  V30 6 1 4 7
M  V30 7 1 5 8
M  V30 8 1 6 9
M  V30 9 1 6 10
M  V30 10 2 7 11
M  V30 11 2 9 12
M  V30 12 1 10 13
M  V30 13 1 12 14
M  V30 14 1 13 15
M  V30 15 1 14 16
M  V30 16 1 14 17
M  V30 17 2 15 18
M  V30 18 1 15 19
M  V30 19 2 16 20
M  V30 20 2 17 21
M  V30 21 1 17 22
M  V30 22 1 18 23
M  V30 23 2 19 24
M  V30 24 1 20 25
M  V30 25 1 23 26
M  V30 26 2 23 27
M  V30 27 1 26 28
M  V30 28 1 27 29
M  V30 29 1 11 12
M  V30 30 1 20 21
M  V30 31 1 24 27
M  V30 32 1 28 29
M  V30 33 1 5 30
M  V30 34 1 5 31
M  V30 35 1 7 32
M  V30 36 1 8 33
M  V30 37 1 8 34
M  V30 38 1 8 35
M  V30 39 1 10 36
M  V30 40 1 13 37
M  V30 41 1 13 38
M  V30 42 1 18 39
M  V30 43 1 19 40
M  V30 44 1 21 41
M  V30 45 1 22 42
M  V30 46 1 22 43
M  V30 47 1 22 44
M  V30 48 1 24 45
M  V30 49 1 25 46
M  V30 50 1 25 47
M  V30 51 1 25 48
M  V30 52 1 28 49
M  V30 53 1 28 50
M  V30 END BOND
M  V30 END CTAB
M  END
>  <ID>
662273

>  <Stereo Isomer>
1

>  <Energy>
73.323

>  <Error>


$$$$
10702834
Actelion Java MolfileCreator 2.0

  0  0  0  0  0  0              0 V3000
M  V30 BEGIN CTAB
M  V30 COUNTS 24 25 0 0 0
M  V30 BEGIN ATOM
M  V30 1 O 1.4247 -0.4747 2.7718 0
M  V30 2 C 0.502 -0.2744 1.763 0
M  V30 3 C 2.7724 -0.4489 2.3077 0
M  V30 4 N 0.9188 -0.083 0.5038 0
M  V30 5 C -0.8192 -0.287 2.1406 0
M  V30 6 C -0.0434 0.1047 -0.4205 0
M  V30 7 C -1.7391 -0.0872 1.1347 0
M  V30 8 N -1.3719 0.1096 -0.1479 0
M  V30 9 N 0.3538 0.3143 -1.7861 0
M  V30 10 C -3.2061 -0.0828 1.4423 0
M  V30 11 N 1.6615 0.3309 -2.1845 0
M  V30 12 C -0.4934 0.5227 -2.8605 0
M  V30 13 C 1.6068 0.549 -3.4989 0
M  V30 14 C 0.293 0.6766 -3.9757 0
M  V30 15 H 3.0269 0.5277 1.8819 0
M  V30 16 H 3.4242 -0.6152 3.1708 0
M  V30 17 H 2.9601 -1.2541 1.5889 0
M  V30 18 H -1.1084 -0.4455 3.1706 0
M  V30 19 H -3.794 0.0881 0.5347 0
M  V30 20 H -3.4409 0.7132 2.1555 0
M  V30 21 H -3.5068 -1.046 1.8662 0
M  V30 22 H -1.5652 0.5398 -2.7207 0
M  V30 23 H 2.533 0.6061 -4.0569 0
M  V30 24 H -0.0359 0.8555 -4.9891 0
M  V30 END ATOM
M  V30 BEGIN BOND
M  V30 1 1 1 2
M  V30 2 1 1 3
M  V30 3 2 2 4
M  V30 4 1 2 5
M  V30 5 1 4 6
M  V30 6 2 5 7
M  V30 7 2 6 8
M  V30 8 1 6 9
M  V30 9 1 7 10
M  V30 10 1 9 11
M  V30 11 1 9 12
M  V30 12 2 11 13
M  V30 13 2 12 14
M  V30 14 1 7 8
M  V30 15 1 13 14
M  V30 16 1 3 15
M  V30 17 1 3 16
M  V30 18 1 3 17
M  V30 19 1 5 18
M  V30 20 1 10 19
M  V30 21 1 10 20
M  V30 22 1 10 21
M  V30 23 1 12 22
M  V30 24 1 13 23
M  V30 25 1 14 24
M  V30 END BOND
M  V30 END CTAB
M  END
>  <ID>
10702834

>  <Stereo Isomer>
1

>  <Energy>
42.445

>  <Error>


$$$$
10749494
Actelion Java MolfileCreator 2.0

  0  0  0  0  0  0              0 V3000
M  V30 BEGIN CTAB
M  V30 COUNTS 19 20 0 0 0
M  V30 BEGIN ATOM
M  V30 1 N 1.4193 0.946 0.2364 0
M  V30 2 C 0.2902 0.2172 0.069 0
M  V30 3 C 2.5124 0.245 0.5571 0
M  V30 4 N -0.9091 0.9026 -0.283 0
M  V30 5 C 0.254 -1.1558 0.2232 0
M  V30 6 N 2.5784 -1.0815 0.7304 0
M  V30 7 N -2.1001 0.2592 -0.4426 0
M  V30 8 C -1.0401 2.2595 -0.4986 0
M  V30 9 C 1.4375 -1.7628 0.5725 0
M  V30 10 C -2.96 1.2286 -0.7616 0
M  V30 11 C -2.3566 2.4946 -0.811 0
M  V30 12 N 1.5155 -3.133 0.7111 0
M  V30 13 H 3.4339 0.8015 0.6893 0
M  V30 14 H -0.6492 -1.7328 0.0729 0
M  V30 15 H -0.1875 2.9183 -0.4098 0
M  V30 16 H -3.9954 0.9704 -0.9452 0
M  V30 17 H -2.8142 3.4461 -1.0413 0
M  V30 18 H 2.4422 -3.4631 0.9497 0
M  V30 19 H 0.7276 -3.6295 1.0994 0
M  V30 END ATOM
M  V30 BEGIN BOND
M  V30 1 2 1 2
M  V30 2 1 1 3
M  V30 3 1 2 4
M  V30 4 1 2 5
M  V30 5 2 3 6
M  V30 6 1 4 7
M  V30 7 1 4 8
M  V30 8 2 5 9
M  V30 9 2 7 10
M  V30 10 2 8 11
M  V30 11 1 9 12
M  V30 12 1 6 9
M  V30 13 1 10 11
M  V30 14 1 3 13
M  V30 15 1 5 14
M  V30 16 1 8 15
M  V30 17 1 10 16
M  V30 18 1 11 17
M  V30 19 1 12 18
M  V30 20 1 12 19
M  V30 END BOND
M  V30 END CTAB
M  END
>  <ID>
10749494

>  <Stereo Isomer>
1

>  <Energy>
-29.448

>  <Error>


$$$$
10488413
Actelion Java MolfileCreator 2.0

  0  0  0  0  0  0              0 V3000
M  V30 BEGIN CTAB
M  V30 COUNTS 27 28 0 0 0
M  V30 BEGIN ATOM
M  V30 1 O 1.0263 -0.3157 2.5278 0
M  V30 2 C 0.0976 -0.0941 1.5301 0
M  V30 3 C 2.3913 -0.2706 2.1025 0
M  V30 4 N 0.5003 0.1058 0.2688 0
M  V30 5 C -1.2201 -0.1056 1.9205 0
M  V30 6 C 2.8469 -1.6274 1.5923 0
M  V30 7 C -0.4701 0.3058 -0.6441 0
M  V30 8 C -2.1499 0.1074 0.9264 0
M  V30 9 N -1.7954 0.3146 -0.358 0
M  V30 10 N -0.085 0.5236 -2.0117 0
M  V30 11 C -3.6133 0.1144 1.2497 0
M  V30 12 N 1.2184 0.5361 -2.4229 0
M  V30 13 C -0.9419 0.7444 -3.076 0
M  V30 14 C 1.1518 0.764 -3.7352 0
M  V30 15 C -0.1655 0.902 -4.1977 0
M  V30 16 H 2.9814 -0.0204 2.9915 0
M  V30 17 H 2.5838 0.5306 1.3789 0
M  V30 18 H -1.4994 -0.2741 2.9516 0
M  V30 19 H 3.9137 -1.6109 1.3521 0
M  V30 20 H 2.6674 -2.4007 2.3464 0
M  V30 21 H 2.2944 -1.9236 0.6955 0
M  V30 22 H -4.21 0.2983 0.3504 0
M  V30 23 H -3.8372 0.9035 1.9742 0
M  V30 24 H -3.9135 -0.852 1.6659 0
M  V30 25 H -2.0121 0.7662 -2.9254 0
M  V30 26 H 2.0727 0.8201 -4.3018 0
M  V30 27 H -0.5038 1.09 -5.2066 0
M  V30 END ATOM
M  V30 BEGIN BOND
M  V30 1 1 1 2
M  V30 2 1 1 3
M  V30 3 2 2 4
M  V30 4 1 2 5
M  V30 5 1 3 6
M  V30 6 1 4 7
M  V30 7 2 5 8
M  V30 8 2 7 9
M  V30 9 1 7 10
M  V30 10 1 8 11
M  V30 11 1 10 12
M  V30 12 1 10 13
M  V30 13 2 12 14
M  V30 14 2 13 15
M  V30 15 1 8 9
M  V30 16 1 14 15
M  V30 17 1 3 16
M  V30 18 1 3 17
M  V30 19 1 5 18
M  V30 20 1 6 19
M  V30 21 1 6 20
M  V30 22 1 6 21
M  V30 23 1 11 22
M  V30 24 1 11 23
M  V30 25 1 11 24
M  V30 26 1 13 25
M  V30 27 1 14 26
M  V30 28 1 15 27
M  V30 END BOND
M  V30 END CTAB
M  END
>  <ID>
10488413

>  <Stereo Isomer>
1

>  <Energy>
42.107

>  <Error>


$$$$
1388164
Actelion Java MolfileCreator 2.0

  0  0  0  0  0  0              0 V3000
M  V30 BEGIN CTAB
M  V30 COUNTS 50 53 0 0 0
M  V30 BEGIN ATOM
M  V30 1 O 1.2782 1.7578 -6.1628 0
M  V30 2 C 0.9316 1.3641 -5.0519 0
M  V30 3 N 1.6289 1.5828 -3.8735 0
M  V30 4 N -0.2366 0.6641 -4.9271 0
M  V30 5 C 1.151 1.1492 -2.6468 0
M  V30 6 C 2.9194 2.2681 -3.9697 0
M  V30 7 C -0.7585 0.1749 -3.7682 0
M  V30 8 O 1.9391 1.4811 -1.5601 0
M  V30 9 C -6.0E-4 0.4638 -2.5349 0
M  V30 10 C 4.0288 1.2724 -3.9654 0
M  V30 11 O -1.7978 -0.4764 -3.7507 0
M  V30 12 C -0.5202 0.0136 -1.2183 0
M  V30 13 O 4.3062 0.6523 -5.1494 0
M  V30 14 C 4.8868 0.8141 -2.9858 0
M  V30 15 N 0.17 0.1192 -0.1231 0
M  V30 16 C 5.3376 -0.1993 -4.9208 0
M  V30 17 C 5.7311 -0.1377 -3.6051 0
M  V30 18 C -0.4669 -0.3128 1.0106 0
M  V30 19 C -1.8754 0.0241 1.4398 0
M  V30 20 C 0.0351 -1.0622 2.0092 0
M  V30 21 O -2.6346 0.737 0.8003 0
M  V30 22 N -2.066 -0.6043 2.6736 0
M  V30 23 N -0.8864 -1.2815 3.0322 0
M  V30 24 C 1.4096 -1.6413 2.058 0
M  V30 25 C -3.0777 -0.2813 3.5947 0
M  V30 26 C -0.989 -2.5254 3.7828 0
M  V30 27 C -4.4141 -0.2672 3.1815 0
M  V30 28 C -2.7679 0.0498 4.9195 0
M  V30 29 C -5.4288 0.0544 4.0855 0
M  V30 30 C -3.7831 0.3716 5.823 0
M  V30 31 C -5.113 0.3706 5.4058 0
M  V30 32 H -0.7444 0.4876 -5.7801 0
M  V30 33 H 2.9697 2.8579 -4.8922 0
M  V30 34 H 3.0249 2.9823 -3.1448 0
M  V30 35 H 1.5184 1.1042 -0.7545 0
M  V30 36 H -1.534 -0.4292 -1.2451 0
M  V30 37 H 4.8914 1.1296 -1.9516 0
M  V30 38 H 5.6709 -0.7673 -5.7781 0
M  V30 39 H 6.5278 -0.7091 -3.1506 0
M  V30 40 H 2.0261 -1.3114 1.2157 0
M  V30 41 H 1.918 -1.3359 2.9783 0
M  V30 42 H 1.368 -2.7347 2.0303 0
M  V30 43 H -1.6696 -2.444 4.6345 0
M  V30 44 H -0.0121 -2.8145 4.1844 0
M  V30 45 H -1.3483 -3.3322 3.1351 0
M  V30 46 H -4.6749 -0.5031 2.1524 0
M  V30 47 H -1.7333 0.0758 5.2509 0
M  V30 48 H -6.4644 0.0649 3.7552 0
M  V30 49 H -3.535 0.6316 6.8486 0
M  V30 50 H -5.9036 0.6262 6.1071 0
M  V30 END ATOM
M  V30 BEGIN BOND
M  V30 1 2 1 2
M  V30 2 1 2 3
M  V30 3 1 2 4
M  V30 4 1 3 5
M  V30 5 1 3 6
M  V30 6 1 4 7
M  V30 7 1 5 8
M  V30 8 2 5 9
M  V30 9 1 6 10
M  V30 10 2 7 11
M  V30 11 1 9 12
M  V30 12 1 10 13
M  V30 13 2 10 14
M  V30 14 2 12 15
M  V30 15 1 13 16
M  V30 16 1 14 17
M  V30 17 1 15 18
M  V30 18 1 18 19
M  V30 19 2 18 20
M  V30 20 2 19 21
M  V30 21 1 19 22
M  V30 22 1 20 23
M  V30 23 1 20 24
M  V30 24 1 22 25
M  V30 25 1 23 26
M  V30 26 2 25 27
M  V30 27 1 25 28
M  V30 28 1 27 29
M  V30 29 2 28 30
M  V30 30 2 29 31
M  V30 31 1 7 9
M  V30 32 2 16 17
M  V30 33 1 22 23
M  V30 34 1 30 31
M  V30 35 1 4 32
M  V30 36 1 6 33
M  V30 37 1 6 34
M  V30 38 1 8 35
M  V30 39 1 12 36
M  V30 40 1 14 37
M  V30 41 1 16 38
M  V30 42 1 17 39
M  V30 43 1 24 40
M  V30 44 1 24 41
M  V30 45 1 24 42
M  V30 46 1 26 43
M  V30 47 1 26 44
M  V30 48 1 26 45
M  V30 49 1 27 46
M  V30 50 1 28 47
M  V30 51 1 29 48
M  V30 52 1 30 49
M  V30 53 1 31 50
M  V30 END BOND
M  V30 END CTAB
M  END
>  <ID>
1388164

>  <Stereo Isomer>
1

>  <Energy>
5.1936

>  <Error>


$$$$
145926666
Actelion Java MolfileCreator 2.0

  0  0  0  0  0  0              0 V3000
M  V30 BEGIN CTAB
M  V30 COUNTS 37 39 0 0 0
M  V30 BEGIN ATOM
M  V30 1 N -1.5013 3.0044 2.134 0
M  V30 2 C -2.2618 2.4676 1.1605 0
M  V30 3 C -2.0387 4.0175 2.8217 0
M  V30 4 N -3.5066 2.8608 0.8366 0
M  V30 5 C -1.7023 1.377 0.392 0
M  V30 6 N -1.2752 4.5451 3.8439 0
M  V30 7 C -3.3125 4.4831 2.5841 0
M  V30 8 C -4.0073 3.8674 1.5702 0
M  V30 9 C -2.2568 0.642 -0.6759 0
M  V30 10 C -0.4521 0.8179 0.569 0
M  V30 11 N -1.431 -0.3012 -1.1394 0
M  V30 12 N -0.3375 -0.175 -0.362 0
M  V30 13 C 0.8141 -1.0467 -0.5539 0
M  V30 14 C 0.4737 -2.5176 -0.303 0
M  V30 15 C 1.4486 -0.8694 -1.9353 0
M  V30 16 C 1.7067 -3.3932 -0.5145 0
M  V30 17 C 2.6496 -1.7994 -2.0931 0
M  V30 18 N 2.2737 -3.1978 -1.8541 0
M  V30 19 C 3.4192 -4.0831 -2.0639 0
M  V30 20 H -1.3272 5.5353 4.0288 0
M  V30 21 H -0.3689 4.1022 3.9338 0
M  V30 22 H -3.7513 5.2823 3.1645 0
M  V30 23 H -5.0175 4.173 1.3151 0
M  V30 24 H -3.2311 0.7599 -1.133 0
M  V30 25 H 0.3395 1.0454 1.2688 0
M  V30 26 H 1.5516 -0.7365 0.1997 0
M  V30 27 H 0.0985 -2.6505 0.7188 0
M  V30 28 H -0.3283 -2.8479 -0.9762 0
M  V30 29 H 0.7165 -1.0809 -2.7259 0
M  V30 30 H 1.7674 0.1705 -2.0749 0
M  V30 31 H 1.4071 -4.4406 -0.387 0
M  V30 32 H 2.4529 -3.1725 0.2599 0
M  V30 33 H 3.0358 -1.6875 -3.1136 0
M  V30 34 H 3.4493 -1.4885 -1.4076 0
M  V30 35 H 3.8038 -3.9804 -3.0847 0
M  V30 36 H 3.1229 -5.1313 -1.945 0
M  V30 37 H 4.2364 -3.8737 -1.3642 0
M  V30 END ATOM
M  V30 BEGIN BOND
M  V30 1 2 1 2
M  V30 2 1 1 3
M  V30 3 1 2 4
M  V30 4 1 2 5
M  V30 5 1 3 6
M  V30 6 2 3 7
M  V30 7 2 4 8
M  V30 8 1 5 9
M  V30 9 2 5 10
M  V30 10 2 9 11
M  V30 11 1 10 12
M  V30 12 1 12 13
M  V30 13 1 13 14
M  V30 14 1 13 15
M  V30 15 1 14 16
M  V30 16 1 15 17
M  V30 17 1 16 18
M  V30 18 1 18 19
M  V30 19 1 7 8
M  V30 20 1 11 12
M  V30 21 1 17 18
M  V30 22 1 6 20
M  V30 23 1 6 21
M  V30 24 1 7 22
M  V30 25 1 8 23
M  V30 26 1 9 24
M  V30 27 1 10 25
M  V30 28 1 13 26
M  V30 29 1 14 27
M  V30 30 1 14 28
M  V30 31 1 15 29
M  V30 32 1 15 30
M  V30 33 1 16 31
M  V30 34 1 16 32
M  V30 35 1 17 33
M  V30 36 1 17 34
M  V30 37 1 19 35
M  V30 38 1 19 36
M  V30 39 1 19 37
M  V30 END BOND
M  V30 END CTAB
M  END
>  <ID>
145926666

>  <Stereo Isomer>
1

>  <Energy>
-54.368

>  <Error>


$$$$
990847
Actelion Java MolfileCreator 2.0

  0  0  0  0  0  0              0 V3000
M  V30 BEGIN CTAB
M  V30 COUNTS 58 62 0 0 0
M  V30 BEGIN ATOM
M  V30 1 S 2.1181 -1.14 1.955 0
M  V30 2 C 1.7426 -1.9352 0.4728 0
M  V30 3 C 2.7383 0.1663 1.1166 0
M  V30 4 N 1.1188 -3.1357 0.4566 0
M  V30 5 C 2.11 -1.1919 -0.631 0
M  V30 6 C 2.6893 0.033 -0.2429 0
M  V30 7 C 3.3182 1.4481 1.5766 0
M  V30 8 C 0.8633 -3.5961 -0.7307 0
M  V30 9 C 1.8463 -1.7342 -1.9455 0
M  V30 10 C 3.2401 1.2291 -0.9238 0
M  V30 11 C 3.9412 1.9843 0.2499 0
M  V30 12 S -0.0089 -5.1211 -0.8047 0
M  V30 13 N 1.1995 -2.9763 -1.9348 0
M  V30 14 O 2.1745 -1.1326 -2.9644 0
M  V30 15 C -1.3209 -4.7748 0.4115 0
M  V30 16 C 0.8908 -3.568 -3.2305 0
M  V30 17 C -2.1388 -3.5645 -0.0174 0
M  V30 18 O -3.0896 -3.6787 -0.7862 0
M  V30 19 N -1.6723 -2.3799 0.5173 0
M  V30 20 C -2.1445 -1.1198 0.2055 0
M  V30 21 C -2.6214 -0.5696 -1.0136 0
M  V30 22 C -2.1141 -0.0631 1.0951 0
M  V30 23 N -2.9041 0.7325 -0.8834 0
M  V30 24 C -2.7971 -1.2115 -2.3396 0
M  V30 25 N -2.5758 1.0231 0.3907 0
M  V30 26 C -1.6834 0.0163 2.514 0
M  V30 27 C -2.7628 2.3902 0.8685 0
M  V30 28 C -1.4663 3.1623 0.9373 0
M  V30 29 C -1.0383 3.7287 2.1475 0
M  V30 30 C -0.6895 3.3648 -0.2139 0
M  V30 31 C 0.1427 4.4712 2.2047 0
M  V30 32 C 0.489 4.1093 -0.1546 0
M  V30 33 C 0.9048 4.6624 1.0539 0
M  V30 34 H 2.5353 2.1224 1.9363 0
M  V30 35 H 4.081 1.3255 2.3502 0
M  V30 36 H 2.4331 1.837 -1.3449 0
M  V30 37 H 3.9545 0.9773 -1.7124 0
M  V30 38 H 5.0126 1.7433 0.2374 0
M  V30 39 H 3.8502 3.071 0.1573 0
M  V30 40 H -0.895 -4.6307 1.4094 0
M  V30 41 H -1.9893 -5.6401 0.4653 0
M  V30 42 H 1.3618 -4.5537 -3.298 0
M  V30 43 H 1.2453 -2.9596 -4.0665 0
M  V30 44 H -0.1934 -3.6829 -3.324 0
M  V30 45 H -0.8873 -2.4108 1.1624 0
M  V30 46 H -3.7685 -1.7119 -2.3977 0
M  V30 47 H -2.7535 -0.4705 -3.1455 0
M  V30 48 H -2.0062 -1.9428 -2.531 0
M  V30 49 H -1.4797 -0.9765 2.9264 0
M  V30 50 H -0.7685 0.6092 2.6062 0
M  V30 51 H -2.4604 0.4724 3.1351 0
M  V30 52 H -3.4623 2.897 0.1926 0
M  V30 53 H -3.25 2.3244 1.8474 0
M  V30 54 H -1.6234 3.6009 3.0558 0
M  V30 55 H -1.0038 2.9429 -1.1684 0
M  V30 56 H 0.465 4.9071 3.147 0
M  V30 57 H 1.0784 4.26 -1.0554 0
M  V30 58 H 1.8205 5.246 1.098 0
M  V30 END ATOM
M  V30 BEGIN BOND
M  V30 1 1 1 2
M  V30 2 1 1 3
M  V30 3 1 2 4
M  V30 4 2 2 5
M  V30 5 2 3 6
M  V30 6 1 3 7
M  V30 7 2 4 8
M  V30 8 1 5 9
M  V30 9 1 6 10
M  V30 10 1 7 11
M  V30 11 1 8 12
M  V30 12 1 8 13
M  V30 13 2 9 14
M  V30 14 1 12 15
M  V30 15 1 13 16
M  V30 16 1 15 17
M  V30 17 2 17 18
M  V30 18 1 17 19
M  V30 19 1 19 20
M  V30 20 1 20 21
M  V30 21 2 20 22
M  V30 22 2 21 23
M  V30 23 1 21 24
M  V30 24 1 22 25
M  V30 25 1 22 26
M  V30 26 1 25 27
M  V30 27 1 27 28
M  V30 28 2 28 29
M  V30 29 1 28 30
M  V30 30 1 29 31
M  V30 31 2 30 32
M  V30 32 2 31 33
M  V30 33 1 5 6
M  V30 34 1 9 13
M  V30 35 1 10 11
M  V30 36 1 23 25
M  V30 37 1 32 33
M  V30 38 1 7 34
M  V30 39 1 7 35
M  V30 40 1 10 36
M  V30 41 1 10 37
M  V30 42 1 11 38
M  V30 43 1 11 39
M  V30 44 1 15 40
M  V30 45 1 15 41
M  V30 46 1 16 42
M  V30 47 1 16 43
M  V30 48 1 16 44
M  V30 49 1 19 45
M  V30 50 1 24 46
M  V30 51 1 24 47
M  V30 52 1 24 48
M  V30 53 1 26 49
M  V30 54 1 26 50
M  V30 55 1 26 51
M  V30 56 1 27 52
M  V30 57 1 27 53
M  V30 58 1 29 54
M  V30 59 1 30 55
M  V30 60 1 31 56
M  V30 61 1 32 57
M  V30 62 1 33 58
M  V30 END BOND
M  V30 END CTAB
M  END
>  <ID>
990847

>  <Stereo Isomer>
1

>  <Energy>
-1.1699

>  <Error>


$$$$
154573768
Actelion Java MolfileCreator 2.0

  0  0  0  0  0  0              0 V3000
M  V30 BEGIN CTAB
M  V30 COUNTS 56 59 0 0 0
M  V30 BEGIN ATOM
M  V30 1 O -1.107 -4.0372 5.5444 0
M  V30 2 C -0.2087 -4.6468 4.9711 0
M  V30 3 N 0.3691 -5.7929 5.473 0
M  V30 4 C 0.3638 -4.2286 3.6807 0
M  V30 5 C -0.0231 -6.3727 6.7249 0
M  V30 6 N 1.3583 -4.9306 3.0923 0
M  V30 7 C -0.0059 -3.0977 2.8955 0
M  V30 8 N 1.6058 -4.2504 1.9561 0
M  V30 9 C 0.821 -3.1406 1.78 0
M  V30 10 C -0.9439 -2.0495 3.0058 0
M  V30 11 C 2.6312 -4.7215 1.055 0
M  V30 12 C 0.7558 -2.1813 0.7645 0
M  V30 13 C -1.0435 -1.0624 2.0057 0
M  V30 14 C -0.1875 -1.1515 0.9043 0
M  V30 15 N -1.9931 -0.0478 2.1744 0
M  V30 16 C -2.3707 1.0705 1.4391 0
M  V30 17 N -1.783 1.3972 0.2812 0
M  V30 18 N -3.3654 1.7896 1.986 0
M  V30 19 C -2.2269 2.5102 -0.3548 0
M  V30 20 C -3.7798 2.8867 1.3267 0
M  V30 21 N -1.6105 2.8733 -1.5886 0
M  V30 22 C -3.242 3.3017 0.1381 0
M  V30 23 N -2.002 3.9622 -2.301 0
M  V30 24 C -0.5826 2.204 -2.2129 0
M  V30 25 C -1.1959 3.9787 -3.37 0
M  V30 26 C -0.2793 2.8932 -3.3689 0
M  V30 27 C -1.319 5.0622 -4.3784 0
M  V30 28 C 0.7607 2.5578 -4.386 0
M  V30 29 N 1.7652 3.6295 -4.4736 0
M  V30 30 C 2.5955 3.4363 -5.6643 0
M  V30 31 C 2.6172 3.6728 -3.2811 0
M  V30 32 H 1.1146 -6.1928 4.9089 0
M  V30 33 H -1.1125 -6.4537 6.7708 0
M  V30 34 H 0.3272 -5.7306 7.5374 0
M  V30 35 H 0.4297 -7.3628 6.8111 0
M  V30 36 H -1.5914 -2.015 3.8791 0
M  V30 37 H 3.3916 -3.9423 0.9604 0
M  V30 38 H 2.17 -4.9317 0.0869 0
M  V30 39 H 3.0816 -5.6329 1.4569 0
M  V30 40 H 1.4038 -2.2191 -0.1046 0
M  V30 41 H -0.2348 -0.4102 0.1126 0
M  V30 42 H -2.5639 -0.0937 3.0071 0
M  V30 43 H -4.5849 3.4391 1.8025 0
M  V30 44 H -3.5996 4.1906 -0.3648 0
M  V30 45 H -0.1612 1.3097 -1.7771 0
M  V30 46 H -1.2433 4.6592 -5.3932 0
M  V30 47 H -2.282 5.5768 -4.2954 0
M  V30 48 H -0.5243 5.8018 -4.2385 0
M  V30 49 H 0.2467 2.445 -5.3499 0
M  V30 50 H 1.2284 1.5904 -4.1613 0
M  V30 51 H 1.9806 3.46 -6.5711 0
M  V30 52 H 3.1395 2.485 -5.6402 0
M  V30 53 H 3.3243 4.2489 -5.7624 0
M  V30 54 H 3.1458 2.7267 -3.116 0
M  V30 55 H 2.0375 3.9073 -2.3823 0
M  V30 56 H 3.3644 4.4694 -3.3747 0
M  V30 END ATOM
M  V30 BEGIN BOND
M  V30 1 2 1 2
M  V30 2 1 2 3
M  V30 3 1 2 4
M  V30 4 1 3 5
M  V30 5 2 4 6
M  V30 6 1 4 7
M  V30 7 1 6 8
M  V30 8 2 7 9
M  V30 9 1 7 10
M  V30 10 1 8 11
M  V30 11 1 9 12
M  V30 12 2 10 13
M  V30 13 2 12 14
M  V30 14 1 13 15
M  V30 15 1 15 16
M  V30 16 2 16 17
M  V30 17 1 16 18
M  V30 18 1 17 19
M  V30 19 2 18 20
M  V30 20 1 19 21
M  V30 21 2 19 22
M  V30 22 1 21 23
M  V30 23 1 21 24
M  V30 24 2 23 25
M  V30 25 2 24 26
M  V30 26 1 25 27
M  V30 27 1 26 28
M  V30 28 1 28 29
M  V30 29 1 29 30
M  V30 30 1 29 31
M  V30 31 1 8 9
M  V30 32 1 13 14
M  V30 33 1 20 22
M  V30 34 1 25 26
M  V30 35 1 3 32
M  V30 36 1 5 33
M  V30 37 1 5 34
M  V30 38 1 5 35
M  V30 39 1 10 36
M  V30 40 1 11 37
M  V30 41 1 11 38
M  V30 42 1 11 39
M  V30 43 1 12 40
M  V30 44 1 14 41
M  V30 45 1 15 42
M  V30 46 1 20 43
M  V30 47 1 22 44
M  V30 48 1 24 45
M  V30 49 1 27 46
M  V30 50 1 27 47
M  V30 51 1 27 48
M  V30 52 1 28 49
M  V30 53 1 28 50
M  V30 54 1 30 51
M  V30 55 1 30 52
M  V30 56 1 30 53
M  V30 57 1 31 54
M  V30 58 1 31 55
M  V30 59 1 31 56
M  V30 END BOND
M  V30 END CTAB
M  END
>  <ID>
154573768

>  <Stereo Isomer>
1

>  <Energy>
6.3965

>  <Error>


$$$$
1386802
Actelion Java MolfileCreator 2.0

  0  0  0  0  0  0              0 V3000
M  V30 BEGIN CTAB
M  V30 COUNTS 53 56 0 0 0
M  V30 BEGIN ATOM
M  V30 1 O -5.0319 -3.3525 -1.0367 0
M  V30 2 C -4.123 -2.598 -0.6965 0
M  V30 3 N -2.9824 -2.3404 -1.4426 0
M  V30 4 N -4.2091 -1.9464 0.5018 0
M  V30 5 C -2.0069 -1.4568 -1.0058 0
M  V30 6 C -2.8253 -3.0582 -2.7113 0
M  V30 7 C -3.2802 -1.0958 1.0195 0
M  V30 8 O -0.9509 -1.2676 -1.8778 0
M  V30 9 C -2.0982 -0.8254 0.1782 0
M  V30 10 C -2.0442 -4.3469 -2.5579 0
M  V30 11 O -3.4155 -0.5888 2.1284 0
M  V30 12 C -1.0603 0.132 0.6392 0
M  V30 13 C -0.6705 -4.3883 -2.8361 0
M  V30 14 C -2.6783 -5.5176 -2.1158 0
M  V30 15 N 0.0578 0.3086 0.0027 0
M  V30 16 C 0.0504 -5.5737 -2.6821 0
M  V30 17 C -1.9561 -6.7024 -1.9621 0
M  V30 18 C 0.8942 1.2509 0.5425 0
M  V30 19 C -0.5922 -6.7302 -2.2458 0
M  V30 20 C 0.516 2.6394 1.0018 0
M  V30 21 C 2.2269 1.1744 0.7144 0
M  V30 22 O -0.6173 3.0935 0.9507 0
M  V30 23 N 1.7014 3.2421 1.4329 0
M  V30 24 N 2.766 2.3392 1.2595 0
M  V30 25 C 3.0802 -0.0083 0.3978 0
M  V30 26 C 1.8862 4.6251 1.6046 0
M  V30 27 C 3.868 2.3581 2.2117 0
M  V30 28 C 2.9311 5.2987 0.96 0
M  V30 29 C 1.0025 5.3486 2.4124 0
M  V30 30 C 3.1009 6.6736 1.1372 0
M  V30 31 C 1.1729 6.7236 2.5891 0
M  V30 32 C 2.2233 7.3844 1.9542 0
M  V30 33 H -5.0288 -2.1358 1.0578 0
M  V30 34 H -3.814 -3.2988 -3.1232 0
M  V30 35 H -2.3608 -2.4057 -3.4613 0
M  V30 36 H -0.3143 -0.6485 -1.4547 0
M  V30 37 H -1.308 0.6724 1.5728 0
M  V30 38 H -0.1534 -3.4924 -3.1734 0
M  V30 39 H -3.7431 -5.5127 -1.8893 0
M  V30 40 H 1.1145 -5.5932 -2.9022 0
M  V30 41 H -2.4599 -7.6029 -1.6206 0
M  V30 42 H -0.0309 -7.6529 -2.1264 0
M  V30 43 H 3.5168 -0.4237 1.3116 0
M  V30 44 H 3.8933 0.2794 -0.2762 0
M  V30 45 H 2.513 -0.8066 -0.091 0
M  V30 46 H 4.2373 3.3693 2.4026 0
M  V30 47 H 4.7153 1.7776 1.8318 0
M  V30 48 H 3.5532 1.9243 3.167 0
M  V30 49 H 3.6085 4.7596 0.3026 0
M  V30 50 H 0.1732 4.8481 2.907 0
M  V30 51 H 3.9117 7.1905 0.6305 0
M  V30 52 H 0.4802 7.2782 3.2171 0
M  V30 53 H 2.3514 8.4556 2.0884 0
M  V30 END ATOM
M  V30 BEGIN BOND
M  V30 1 2 1 2
M  V30 2 1 2 3
M  V30 3 1 2 4
M  V30 4 1 3 5
M  V30 5 1 3 6
M  V30 6 1 4 7
M  V30 7 1 5 8
M  V30 8 2 5 9
M  V30 9 1 6 10
M  V30 10 2 7 11
M  V30 11 1 9 12
M  V30 12 2 10 13
M  V30 13 1 10 14
M  V30 14 2 12 15
M  V30 15 1 13 16
M  V30 16 2 14 17
M  V30 17 1 15 18
M  V30 18 2 16 19
M  V30 19 1 18 20
M  V30 20 2 18 21
M  V30 21 2 20 22
M  V30 22 1 20 23
M  V30 23 1 21 24
M  V30 24 1 21 25
M  V30 25 1 23 26
M  V30 26 1 24 27
M  V30 27 2 26 28
M  V30 28 1 26 29
M  V30 29 1 28 30
M  V30 30 2 29 31
M  V30 31 2 30 32
M  V30 32 1 7 9
M  V30 33 1 17 19
M  V30 34 1 23 24
M  V30 35 1 31 32
M  V30 36 1 4 33
M  V30 37 1 6 34
M  V30 38 1 6 35
M  V30 39 1 8 36
M  V30 40 1 12 37
M  V30 41 1 13 38
M  V30 42 1 14 39
M  V30 43 1 16 40
M  V30 44 1 17 41
M  V30 45 1 19 42
M  V30 46 1 25 43
M  V30 47 1 25 44
M  V30 48 1 25 45
M  V30 49 1 27 46
M  V30 50 1 27 47
M  V30 51 1 27 48
M  V30 52 1 28 49
M  V30 53 1 29 50
M  V30 54 1 30 51
M  V30 55 1 31 52
M  V30 56 1 32 53
M  V30 END BOND
M  V30 END CTAB
M  END
>  <ID>
1386802

>  <Stereo Isomer>
1

>  <Energy>
20.055

>  <Error>


$$$$
1894784
Actelion Java MolfileCreator 2.0

  0  0  0  0  0  0              0 V3000
M  V30 BEGIN CTAB
M  V30 COUNTS 54 57 0 0 0
M  V30 BEGIN ATOM
M  V30 1 O 1.5951 1.6749 5.5916 0
M  V30 2 C 1.2554 1.1574 4.5283 0
M  V30 3 N 1.1415 1.8098 3.2961 0
M  V30 4 N 0.9433 -0.1767 4.5228 0
M  V30 5 C 0.7431 1.1261 2.1485 0
M  V30 6 C 1.4546 3.2045 3.2673 0
M  V30 7 C 0.5208 -0.9024 3.4519 0
M  V30 8 O 0.7007 1.8867 0.99 0
M  V30 9 C 0.4358 -0.1835 2.1667 0
M  V30 10 C 0.4569 4.144 2.9642 0
M  V30 11 C 2.7571 3.6346 3.5458 0
M  V30 12 O 0.2146 -2.0855 3.5546 0
M  V30 13 C 0.0347 -0.9129 0.9351 0
M  V30 14 C 0.7612 5.506 2.9351 0
M  V30 15 C 3.0613 4.9942 3.5203 0
M  V30 16 N -0.1674 -0.3105 -0.1977 0
M  V30 17 O -0.1124 6.5205 2.6521 0
M  V30 18 C 2.0655 5.9231 3.2156 0
M  V30 19 C -0.4973 -1.1358 -1.2413 0
M  V30 20 C -1.4474 6.1475 2.3354 0
M  V30 21 C 0.2235 -2.3977 -1.6535 0
M  V30 22 C -1.4522 -0.9557 -2.1724 0
M  V30 23 O 1.157 -2.8865 -1.0341 0
M  V30 24 N -0.429 -2.8599 -2.7996 0
M  V30 25 N -1.468 -1.9701 -3.1298 0
M  V30 26 C -2.3926 0.2011 -2.242 0
M  V30 27 C -0.342 -4.167 -3.3091 0
M  V30 28 C -1.785 -1.7536 -4.5358 0
M  V30 29 C -1.4954 -4.9219 -3.5564 0
M  V30 30 C 0.9121 -4.7366 -3.5519 0
M  V30 31 C -1.3951 -6.2215 -4.058 0
M  V30 32 C 1.0119 -6.0364 -4.0537 0
M  V30 33 C -0.1412 -6.7766 -4.3092 0
M  V30 34 H 1.0134 -0.6527 5.4097 0
M  V30 35 H 0.4199 1.3072 0.2479 0
M  V30 36 H -0.5432 3.7846 2.753 0
M  V30 37 H 3.5362 2.9167 3.7876 0
M  V30 38 H -0.0883 -2.0059 1.0602 0
M  V30 39 H 4.0706 5.3315 3.7401 0
M  V30 40 H 2.3065 6.9833 3.1972 0
M  V30 41 H -1.4808 5.5226 1.4368 0
M  V30 42 H -2.0091 7.0629 2.1249 0
M  V30 43 H -1.9295 5.649 3.1829 0
M  V30 44 H -2.2052 0.7966 -3.1413 0
M  V30 45 H -3.4284 -0.1523 -2.2684 0
M  V30 46 H -2.2933 0.8655 -1.3776 0
M  V30 47 H -2.7354 -1.2194 -4.6384 0
M  V30 48 H -1.0008 -1.1582 -5.016 0
M  V30 49 H -1.8883 -2.6909 -5.0892 0
M  V30 50 H -2.4779 -4.5085 -3.3441 0
M  V30 51 H 1.8209 -4.1742 -3.3498 0
M  V30 52 H -2.2942 -6.803 -4.2442 0
M  V30 53 H 1.9908 -6.4716 -4.2379 0
M  V30 54 H -0.0619 -7.7899 -4.6948 0
M  V30 END ATOM
M  V30 BEGIN BOND
M  V30 1 2 1 2
M  V30 2 1 2 3
M  V30 3 1 2 4
M  V30 4 1 3 5
M  V30 5 1 3 6
M  V30 6 1 4 7
M  V30 7 1 5 8
M  V30 8 2 5 9
M  V30 9 2 6 10
M  V30 10 1 6 11
M  V30 11 2 7 12
M  V30 12 1 9 13
M  V30 13 1 10 14
M  V30 14 2 11 15
M  V30 15 2 13 16
M  V30 16 1 14 17
M  V30 17 2 14 18
M  V30 18 1 16 19
M  V30 19 1 17 20
M  V30 20 1 19 21
M  V30 21 2 19 22
M  V30 22 2 21 23
M  V30 23 1 21 24
M  V30 24 1 22 25
M  V30 25 1 22 26
M  V30 26 1 24 27
M  V30 27 1 25 28
M  V30 28 2 27 29
M  V30 29 1 27 30
M  V30 30 1 29 31
M  V30 31 2 30 32
M  V30 32 2 31 33
M  V30 33 1 7 9
M  V30 34 1 15 18
M  V30 35 1 24 25
M  V30 36 1 32 33
M  V30 37 1 4 34
M  V30 38 1 8 35
M  V30 39 1 10 36
M  V30 40 1 11 37
M  V30 41 1 13 38
M  V30 42 1 15 39
M  V30 43 1 18 40
M  V30 44 1 20 41
M  V30 45 1 20 42
M  V30 46 1 20 43
M  V30 47 1 26 44
M  V30 48 1 26 45
M  V30 49 1 26 46
M  V30 50 1 28 47
M  V30 51 1 28 48
M  V30 52 1 28 49
M  V30 53 1 29 50
M  V30 54 1 30 51
M  V30 55 1 31 52
M  V30 56 1 32 53
M  V30 57 1 33 54
M  V30 END BOND
M  V30 END CTAB
M  END
>  <ID>
1894784

>  <Stereo Isomer>
1

>  <Energy>
51.954

>  <Error>


$$$$
663060
Actelion Java MolfileCreator 2.0

  0  0  0  0  0  0              0 V3000
M  V30 BEGIN CTAB
M  V30 COUNTS 50 52 0 0 0
M  V30 BEGIN ATOM
M  V30 1 O -3.2464 0.3954 1.741 0
M  V30 2 C -3.3308 0.0655 0.5673 0
M  V30 3 O -4.4851 -0.135 -0.117 0
M  V30 4 C -2.1637 -0.182 -0.3036 0
M  V30 5 C -5.6994 0.0617 0.6244 0
M  V30 6 C -0.8777 -0.3281 0.2083 0
M  V30 7 C -2.288 -0.2501 -1.6754 0
M  V30 8 C -6.0817 -1.2146 1.3491 0
M  V30 9 N 0.1775 -0.5355 -0.6096 0
M  V30 10 N -0.6536 -0.3382 1.5743 0
M  V30 11 N -1.2529 -0.4497 -2.5114 0
M  V30 12 C -0.0346 -0.5848 -1.9457 0
M  V30 13 C 0.6656 -0.4528 2.1697 0 CFG=1
M  V30 14 N 1.0935 -0.8083 -2.8198 0
M  V30 15 C 1.3747 0.8899 2.2636 0
M  V30 16 C 0.5106 -1.0546 3.5701 0
M  V30 17 N 0.9049 -1.2076 -4.1156 0
M  V30 18 C 2.4507 -0.673 -2.5368 0
M  V30 19 C 0.6839 2.0953 2.4713 0
M  V30 20 C 2.7779 0.9325 2.19 0
M  V30 21 C 2.1298 -1.3464 -4.625 0
M  V30 22 C 3.1262 -1.0287 -3.6854 0
M  V30 23 C 2.9928 -0.2091 -1.237 0
M  V30 24 C 1.3734 3.3057 2.5766 0
M  V30 25 C 3.4659 2.1428 2.2957 0
M  V30 26 C 2.3037 -1.7827 -6.0309 0
M  V30 27 C 2.7629 3.3293 2.4867 0
M  V30 28 H -6.4778 0.3218 -0.0999 0
M  V30 29 H -5.609 0.9058 1.3178 0
M  V30 30 H -3.2457 -0.1391 -2.1761 0
M  V30 31 H -7.0356 -1.094 1.8701 0
M  V30 32 H -6.1673 -2.0467 0.6424 0
M  V30 33 H -5.3172 -1.4955 2.0802 0
M  V30 34 H -1.4007 0.0318 2.1609 0
M  V30 35 H 1.277 -1.151 1.5841 0
M  V30 36 H -0.0932 -0.4124 4.222 0
M  V30 37 H 1.4847 -1.196 4.0512 0
M  V30 38 H 0.0148 -2.0305 3.5189 0
M  V30 39 H -0.4 2.105 2.5515 0
M  V30 40 H 3.3457 0.0156 2.047 0
M  V30 41 H 4.1981 -1.0427 -3.8269 0
M  V30 42 H 2.8268 -0.9586 -0.4578 0
M  V30 43 H 4.0734 -0.044 -1.3064 0
M  V30 44 H 2.5391 0.7398 -0.937 0
M  V30 45 H 0.8229 4.2301 2.7305 0
M  V30 46 H 4.5506 2.1588 2.231 0
M  V30 47 H 3.364 -1.8608 -6.2916 0
M  V30 48 H 1.8386 -1.0664 -6.7155 0
M  V30 49 H 1.8435 -2.7634 -6.1889 0
M  V30 50 H 3.2971 4.272 2.5687 0
M  V30 END ATOM
M  V30 BEGIN BOND
M  V30 1 2 1 2
M  V30 2 1 2 3
M  V30 3 1 2 4
M  V30 4 1 3 5
M  V30 5 2 4 6
M  V30 6 1 4 7
M  V30 7 1 5 8
M  V30 8 1 6 9
M  V30 9 1 6 10
M  V30 10 2 7 11
M  V30 11 2 9 12
M  V30 12 1 10 13
M  V30 13 1 12 14
M  V30 14 1 13 15
M  V30 15 1 13 16
M  V30 16 1 14 17
M  V30 17 1 14 18
M  V30 18 2 15 19
M  V30 19 1 15 20
M  V30 20 2 17 21
M  V30 21 2 18 22
M  V30 22 1 18 23
M  V30 23 1 19 24
M  V30 24 2 20 25
M  V30 25 1 21 26
M  V30 26 2 24 27
M  V30 27 1 11 12
M  V30 28 1 21 22
M  V30 29 1 25 27
M  V30 30 1 5 28
M  V30 31 1 5 29
M  V30 32 1 7 30
M  V30 33 1 8 31
M  V30 34 1 8 32
M  V30 35 1 8 33
M  V30 36 1 10 34
M  V30 37 1 13 35
M  V30 38 1 16 36
M  V30 39 1 16 37
M  V30 40 1 16 38
M  V30 41 1 19 39
M  V30 42 1 20 40
M  V30 43 1 22 41
M  V30 44 1 23 42
M  V30 45 1 23 43
M  V30 46 1 23 44
M  V30 47 1 24 45
M  V30 48 1 25 46
M  V30 49 1 26 47
M  V30 50 1 26 48
M  V30 51 1 26 49
M  V30 52 1 27 50
M  V30 END BOND
M  V30 BEGIN COLLECTION
M  V30 MDLV30/STEABS ATOMS=(1 13)
M  V30 END COLLECTION
M  V30 END CTAB
M  END
>  <ID>
663060

>  <Stereo Isomer>
1

>  <Energy>
76.438

>  <Error>


$$$$
663060
Actelion Java MolfileCreator 2.0

  0  0  0  0  0  0              0 V3000
M  V30 BEGIN CTAB
M  V30 COUNTS 50 52 0 0 0
M  V30 BEGIN ATOM
M  V30 1 O -3.2464 0.3954 -1.741 0
M  V30 2 C -3.3308 0.0655 -0.5673 0
M  V30 3 O -4.4851 -0.135 0.117 0
M  V30 4 C -2.1637 -0.182 0.3036 0
M  V30 5 C -5.6994 0.0617 -0.6244 0
M  V30 6 C -0.8777 -0.3281 -0.2083 0
M  V30 7 C -2.288 -0.2501 1.6754 0
M  V30 8 C -6.0817 -1.2146 -1.3491 0
M  V30 9 N 0.1775 -0.5355 0.6096 0
M  V30 10 N -0.6536 -0.3382 -1.5743 0
M  V30 11 N -1.2529 -0.4497 2.5114 0
M  V30 12 C -0.0346 -0.5848 1.9457 0
M  V30 13 C 0.6656 -0.4528 -2.1697 0 CFG=2
M  V30 14 N 1.0935 -0.8083 2.8198 0
M  V30 15 C 1.3747 0.8899 -2.2636 0
M  V30 16 C 0.5106 -1.0546 -3.5701 0
M  V30 17 N 0.9049 -1.2076 4.1156 0
M  V30 18 C 2.4507 -0.673 2.5368 0
M  V30 19 C 0.6839 2.0953 -2.4713 0
M  V30 20 C 2.7779 0.9325 -2.19 0
M  V30 21 C 2.1298 -1.3464 4.625 0
M  V30 22 C 3.1262 -1.0287 3.6854 0
M  V30 23 C 2.9928 -0.2091 1.237 0
M  V30 24 C 1.3734 3.3057 -2.5766 0
M  V30 25 C 3.4659 2.1428 -2.2957 0
M  V30 26 C 2.3037 -1.7827 6.0309 0
M  V30 27 C 2.7629 3.3293 -2.4867 0
M  V30 28 H -6.4778 0.3218 0.0999 0
M  V30 29 H -5.609 0.9058 -1.3178 0
M  V30 30 H -3.2457 -0.1391 2.1761 0
M  V30 31 H -7.0356 -1.094 -1.8701 0
M  V30 32 H -6.1673 -2.0467 -0.6424 0
M  V30 33 H -5.3172 -1.4955 -2.0802 0
M  V30 34 H -1.4007 0.0318 -2.1609 0
M  V30 35 H 1.277 -1.151 -1.5841 0
M  V30 36 H -0.0932 -0.4124 -4.222 0
M  V30 37 H 1.4847 -1.196 -4.0512 0
M  V30 38 H 0.0148 -2.0305 -3.5189 0
M  V30 39 H -0.4 2.105 -2.5515 0
M  V30 40 H 3.3457 0.0156 -2.047 0
M  V30 41 H 4.1981 -1.0427 3.8269 0
M  V30 42 H 2.8268 -0.9586 0.4578 0
M  V30 43 H 4.0734 -0.044 1.3064 0
M  V30 44 H 2.5391 0.7398 0.937 0
M  V30 45 H 0.8229 4.2301 -2.7305 0
M  V30 46 H 4.5506 2.1588 -2.231 0
M  V30 47 H 3.364 -1.8608 6.2916 0
M  V30 48 H 1.8386 -1.0664 6.7155 0
M  V30 49 H 1.8435 -2.7634 6.1889 0
M  V30 50 H 3.2971 4.272 -2.5687 0
M  V30 END ATOM
M  V30 BEGIN BOND
M  V30 1 2 1 2
M  V30 2 1 2 3
M  V30 3 1 2 4
M  V30 4 1 3 5
M  V30 5 2 4 6
M  V30 6 1 4 7
M  V30 7 1 5 8
M  V30 8 1 6 9
M  V30 9 1 6 10
M  V30 10 2 7 11
M  V30 11 2 9 12
M  V30 12 1 10 13
M  V30 13 1 12 14
M  V30 14 1 13 15
M  V30 15 1 13 16
M  V30 16 1 14 17
M  V30 17 1 14 18
M  V30 18 2 15 19
M  V30 19 1 15 20
M  V30 20 2 17 21
M  V30 21 2 18 22
M  V30 22 1 18 23
M  V30 23 1 19 24
M  V30 24 2 20 25
M  V30 25 1 21 26
M  V30 26 2 24 27
M  V30 27 1 11 12
M  V30 28 1 21 22
M  V30 29 1 25 27
M  V30 30 1 5 28
M  V30 31 1 5 29
M  V30 32 1 7 30
M  V30 33 1 8 31
M  V30 34 1 8 32
M  V30 35 1 8 33
M  V30 36 1 10 34
M  V30 37 1 13 35
M  V30 38 1 16 36
M  V30 39 1 16 37
M  V30 40 1 16 38
M  V30 41 1 19 39
M  V30 42 1 20 40
M  V30 43 1 22 41
M  V30 44 1 23 42
M  V30 45 1 23 43
M  V30 46 1 23 44
M  V30 47 1 24 45
M  V30 48 1 25 46
M  V30 49 1 26 47
M  V30 50 1 26 48
M  V30 51 1 26 49
M  V30 52 1 27 50
M  V30 END BOND
M  V30 BEGIN COLLECTION
M  V30 MDLV30/STEABS ATOMS=(1 13)
M  V30 END COLLECTION
M  V30 END CTAB
M  END
>  <ID>
663060

>  <Stereo Isomer>
2

>  <Energy>
76.438

>  <Error>


$$$$
663249
Actelion Java MolfileCreator 2.0

  0  0  0  0  0  0              0 V3000
M  V30 BEGIN CTAB
M  V30 COUNTS 40 41 0 0 0
M  V30 BEGIN ATOM
M  V30 1 O 0.2358 -0.9435 -3.6994 0
M  V30 2 C 0.9218 -0.8248 -2.7004 0
M  V30 3 O 2.2768 -0.93 -2.6463 0
M  V30 4 C 0.4286 -0.5362 -1.3469 0
M  V30 5 C 2.8928 -1.1947 -3.9137 0
M  V30 6 C -0.5556 0.3962 -1.0566 0
M  V30 7 C 0.8962 -1.2975 -0.2924 0
M  V30 8 C 4.3916 -1.2802 -3.7013 0
M  V30 9 N -1.0249 0.5059 0.2081 0
M  V30 10 N -1.1038 1.2619 -2.0015 0
M  V30 11 N 0.4576 -1.185 0.9767 0
M  V30 12 C -0.5136 -0.2746 1.1882 0
M  V30 13 C -2.4393 1.766 -1.6965 0
M  V30 14 C -0.2011 2.1993 -2.6558 0
M  V30 15 N -1.041 -0.1135 2.5254 0
M  V30 16 N -2.0093 0.8185 2.7877 0
M  V30 17 C -0.6962 -0.8066 3.6858 0
M  V30 18 C -2.2656 0.7078 4.0917 0
M  V30 19 C -1.4772 -0.2859 4.6968 0
M  V30 20 C 0.3198 -1.8865 3.7545 0
M  V30 21 C -3.2825 1.5809 4.7251 0
M  V30 22 H 2.6633 -0.3827 -4.6129 0
M  V30 23 H 2.5206 -2.1445 -4.3141 0
M  V30 24 H 1.6542 -2.0629 -0.4406 0
M  V30 25 H 4.9084 -1.4822 -4.6436 0
M  V30 26 H 4.7752 -0.3447 -3.2807 0
M  V30 27 H 4.6349 -2.0738 -2.987 0
M  V30 28 H -3.122 0.9507 -1.4297 0
M  V30 29 H -2.4145 2.4975 -0.8805 0
M  V30 30 H -2.8665 2.2605 -2.5762 0
M  V30 31 H 0.6739 1.7165 -3.0979 0
M  V30 32 H 0.1488 2.9548 -1.9431 0
M  V30 33 H -0.7178 2.7193 -3.4703 0
M  V30 34 H -1.4756 -0.5881 5.7353 0
M  V30 35 H 1.3099 -1.5142 3.4732 0
M  V30 36 H 0.3979 -2.2765 4.7753 0
M  V30 37 H 0.0477 -2.7258 3.1069 0
M  V30 38 H -3.3749 1.3677 5.7949 0
M  V30 39 H -4.263 1.4263 4.2631 0
M  V30 40 H -3.0078 2.6348 4.6124 0
M  V30 END ATOM
M  V30 BEGIN BOND
M  V30 1 2 1 2
M  V30 2 1 2 3
M  V30 3 1 2 4
M  V30 4 1 3 5
M  V30 5 2 4 6
M  V30 6 1 4 7
M  V30 7 1 5 8
M  V30 8 1 6 9
M  V30 9 1 6 10
M  V30 10 2 7 11
M  V30 11 2 9 12
M  V30 12 1 10 13
M  V30 13 1 10 14
M  V30 14 1 12 15
M  V30 15 1 15 16
M  V30 16 1 15 17
M  V30 17 2 16 18
M  V30 18 2 17 19
M  V30 19 1 17 20
M  V30 20 1 18 21
M  V30 21 1 11 12
M  V30 22 1 18 19
M  V30 23 1 5 22
M  V30 24 1 5 23
M  V30 25 1 7 24
M  V30 26 1 8 25
M  V30 27 1 8 26
M  V30 28 1 8 27
M  V30 29 1 13 28
M  V30 30 1 13 29
M  V30 31 1 13 30
M  V30 32 1 14 31
M  V30 33 1 14 32
M  V30 34 1 14 33
M  V30 35 1 19 34
M  V30 36 1 20 35
M  V30 37 1 20 36
M  V30 38 1 20 37
M  V30 39 1 21 38
M  V30 40 1 21 39
M  V30 41 1 21 40
M  V30 END BOND
M  V30 END CTAB
M  END
>  <ID>
663249

>  <Stereo Isomer>
1

>  <Energy>
71.424

>  <Error>


$$$$
12115989
Actelion Java MolfileCreator 2.0

  0  0  0  0  0  0              0 V3000
M  V30 BEGIN CTAB
M  V30 COUNTS 34 36 0 0 0
M  V30 BEGIN ATOM
M  V30 1 S 2.5922 3.0946 0.4177 0
M  V30 2 C 1.4083 4.2753 0.7954 0
M  V30 3 C 1.4302 2.0636 -0.3012 0
M  V30 4 C 0.1524 3.8772 0.3739 0
M  V30 5 C 1.8031 5.5357 1.4868 0
M  V30 6 C 0.1597 2.5915 -0.238 0
M  V30 7 F 2.3697 5.3068 2.6986 0
M  V30 8 F 2.6911 6.2631 0.7614 0
M  V30 9 F 0.7323 6.3451 1.7072 0
M  V30 10 O -0.968 2.0368 -0.7465 0
M  V30 11 C -1.1312 0.6718 -0.9387 0
M  V30 12 N -0.4189 -0.184 -0.1855 0
M  V30 13 C -2.088 0.2797 -1.8557 0
M  V30 14 C -0.6519 -1.4965 -0.3758 0
M  V30 15 C -2.2558 -1.0827 -1.9668 0
M  V30 16 C -2.8913 1.2482 -2.6558 0
M  V30 17 N -1.5589 -1.9865 -1.2521 0
M  V30 18 N 0.1116 -2.4438 0.3892 0
M  V30 19 N 1.1038 -2.0735 1.2486 0
M  V30 20 C -0.0276 -3.8191 0.3605 0
M  V30 21 C 1.5614 -3.2209 1.7495 0
M  V30 22 C 0.8989 -4.352 1.2372 0
M  V30 23 C 1.1609 -5.767 1.5777 0
M  V30 24 F 0.047 -6.3886 2.0401 0
M  V30 25 F 1.5884 -6.4723 0.5003 0
M  V30 26 F 2.112 -5.8978 2.5371 0
M  V30 27 H 1.749 1.1203 -0.7226 0
M  V30 28 H -0.7375 4.4806 0.5094 0
M  V30 29 H -2.9812 -1.5099 -2.655 0
M  V30 30 H -2.2334 1.9086 -3.23 0
M  V30 31 H -3.5447 0.7337 -3.3684 0
M  V30 32 H -3.5239 1.8526 -1.9979 0
M  V30 33 H -0.7694 -4.2849 -0.2745 0
M  V30 34 H 2.3675 -3.1861 2.4739 0
M  V30 END ATOM
M  V30 BEGIN BOND
M  V30 1 1 1 2
M  V30 2 1 1 3
M  V30 3 2 2 4
M  V30 4 1 2 5
M  V30 5 2 3 6
M  V30 6 1 5 7
M  V30 7 1 5 8
M  V30 8 1 5 9
M  V30 9 1 6 10
M  V30 10 1 10 11
M  V30 11 2 11 12
M  V30 12 1 11 13
M  V30 13 1 12 14
M  V30 14 2 13 15
M  V30 15 1 13 16
M  V30 16 2 14 17
M  V30 17 1 14 18
M  V30 18 1 18 19
M  V30 19 1 18 20
M  V30 20 2 19 21
M  V30 21 2 20 22
M  V30 22 1 22 23
M  V30 23 1 23 24
M  V30 24 1 23 25
M  V30 25 1 23 26
M  V30 26 1 4 6
M  V30 27 1 15 17
M  V30 28 1 21 22
M  V30 29 1 3 27
M  V30 30 1 4 28
M  V30 31 1 15 29
M  V30 32 1 16 30
M  V30 33 1 16 31
M  V30 34 1 16 32
M  V30 35 1 20 33
M  V30 36 1 21 34
M  V30 END BOND
M  V30 END CTAB
M  END
>  <ID>
12115989

>  <Stereo Isomer>
1

>  <Energy>
91.353

>  <Error>


$$$$
11524380
Actelion Java MolfileCreator 2.0

  0  0  0  0  0  0              0 V3000
M  V30 BEGIN CTAB
M  V30 COUNTS 35 37 0 0 0
M  V30 BEGIN ATOM
M  V30 1 S -4.2648 -2.7581 -0.7516 0
M  V30 2 C -3.1564 -2.5138 0.5334 0
M  V30 3 C -3.765 -1.3263 -1.54 0
M  V30 4 C -2.4231 -1.3541 0.3507 0
M  V30 5 C -3.0819 -3.4939 1.6545 0
M  V30 6 C -2.7576 -0.6805 -0.8602 0
M  V30 7 F -4.2857 -3.6731 2.2596 0
M  V30 8 F -2.6612 -4.7175 1.2423 0
M  V30 9 F -2.2212 -3.0933 2.6279 0
M  V30 10 O -2.2653 0.4798 -1.3573 0
M  V30 11 C -1.0336 1.0076 -0.9895 0
M  V30 12 N -0.0936 0.1805 -0.4876 0
M  V30 13 C -0.8331 2.357 -1.236 0
M  V30 14 C 1.0972 0.7287 -0.1857 0
M  V30 15 O -1.8531 3.0859 -1.768 0
M  V30 16 C 0.4229 2.8109 -0.8985 0
M  V30 17 N 1.3986 2.0339 -0.3756 0
M  V30 18 N 2.111 -0.1149 0.3856 0
M  V30 19 C -1.6053 4.4656 -2.0109 0
M  V30 20 N 1.8916 -1.424 0.6984 0
M  V30 21 C 3.4018 0.2604 0.7078 0
M  V30 22 C 3.0503 -1.8483 1.203 0
M  V30 23 C 4.0385 -0.8462 1.2385 0
M  V30 24 C 5.4245 -0.9806 1.7371 0
M  V30 25 F 6.335 -0.6258 0.7954 0
M  V30 26 F 5.6474 -0.192 2.8185 0
M  V30 27 F 5.7173 -2.2525 2.1091 0
M  V30 28 H -4.2259 -1.03 -2.4721 0
M  V30 29 H -1.6734 -1.0247 1.0611 0
M  V30 30 H 0.7209 3.8456 -1.0333 0
M  V30 31 H -1.3862 4.9963 -1.0784 0
M  V30 32 H -2.5151 4.8994 -2.4368 0
M  V30 33 H -0.7983 4.5984 -2.7391 0
M  V30 34 H 3.7438 1.2713 0.5291 0
M  V30 35 H 3.1284 -2.8799 1.5285 0
M  V30 END ATOM
M  V30 BEGIN BOND
M  V30 1 1 1 2
M  V30 2 1 1 3
M  V30 3 2 2 4
M  V30 4 1 2 5
M  V30 5 2 3 6
M  V30 6 1 5 7
M  V30 7 1 5 8
M  V30 8 1 5 9
M  V30 9 1 6 10
M  V30 10 1 10 11
M  V30 11 2 11 12
M  V30 12 1 11 13
M  V30 13 1 12 14
M  V30 14 1 13 15
M  V30 15 2 13 16
M  V30 16 2 14 17
M  V30 17 1 14 18
M  V30 18 1 15 19
M  V30 19 1 18 20
M  V30 20 1 18 21
M  V30 21 2 20 22
M  V30 22 2 21 23
M  V30 23 1 23 24
M  V30 24 1 24 25
M  V30 25 1 24 26
M  V30 26 1 24 27
M  V30 27 1 4 6
M  V30 28 1 16 17
M  V30 29 1 22 23
M  V30 30 1 3 28
M  V30 31 1 4 29
M  V30 32 1 16 30
M  V30 33 1 19 31
M  V30 34 1 19 32
M  V30 35 1 19 33
M  V30 36 1 21 34
M  V30 37 1 22 35
M  V30 END BOND
M  V30 END CTAB
M  END
>  <ID>
11524380

>  <Stereo Isomer>
1

>  <Energy>
128.19

>  <Error>


$$$$
4774543
Actelion Java MolfileCreator 2.0

  0  0  0  0  0  0              0 V3000
M  V30 BEGIN CTAB
M  V30 COUNTS 30 32 0 0 0
M  V30 BEGIN ATOM
M  V30 1 O -4.8889 -0.24 -2.9632 0
M  V30 2 C -4.1487 -0.0695 -2.0022 0
M  V30 3 O -4.6825 0.1077 -0.7698 0
M  V30 4 C -2.6857 -0.0361 -2.0656 0
M  V30 5 N -1.9073 0.143 -0.985 0
M  V30 6 C -1.9058 -0.1808 -3.235 0
M  V30 7 N -0.6244 0.1122 -1.4424 0
M  V30 8 C -0.5971 -0.0824 -2.8315 0
M  V30 9 C 0.5795 0.2481 -0.7072 0
M  V30 10 N 0.5652 -0.1458 -3.5445 0
M  V30 11 C 0.5507 0.4599 0.7133 0
M  V30 12 C 1.7425 0.2006 -1.3896 0
M  V30 13 C 1.6542 -0.0098 -2.855 0
M  V30 14 C 1.3574 -0.1279 1.6767 0
M  V30 15 C -0.3116 1.3114 1.4383 0
M  V30 16 N 0.963 0.434 2.8696 0
M  V30 17 C 2.4243 -1.1594 1.5934 0
M  V30 18 N -0.0446 1.3138 2.745 0
M  V30 19 C 1.4984 0.1697 4.1858 0
M  V30 20 H -5.6455 0.0545 -0.9226 0
M  V30 21 H -2.2553 -0.3356 -4.246 0
M  V30 22 H 2.7209 0.3198 -0.946 0
M  V30 23 H 2.6234 -0.0506 -3.3803 0
M  V30 24 H -1.1135 1.9389 1.0686 0
M  V30 25 H 2.3054 -1.783 0.702 0
M  V30 26 H 2.401 -1.8314 2.4572 0
M  V30 27 H 3.4091 -0.6833 1.5519 0
M  V30 28 H 2.5895 0.1604 4.1277 0
M  V30 29 H 1.1778 0.9566 4.8739 0
M  V30 30 H 1.1189 -0.7991 4.5189 0
M  V30 END ATOM
M  V30 BEGIN BOND
M  V30 1 2 1 2
M  V30 2 1 2 3
M  V30 3 1 2 4
M  V30 4 2 4 5
M  V30 5 1 4 6
M  V30 6 1 5 7
M  V30 7 2 6 8
M  V30 8 1 7 9
M  V30 9 1 8 10
M  V30 10 1 9 11
M  V30 11 2 9 12
M  V30 12 2 10 13
M  V30 13 2 11 14
M  V30 14 1 11 15
M  V30 15 1 14 16
M  V30 16 1 14 17
M  V30 17 2 15 18
M  V30 18 1 16 19
M  V30 19 1 7 8
M  V30 20 1 12 13
M  V30 21 1 16 18
M  V30 22 1 3 20
M  V30 23 1 6 21
M  V30 24 1 12 22
M  V30 25 1 13 23
M  V30 26 1 15 24
M  V30 27 1 17 25
M  V30 28 1 17 26
M  V30 29 1 17 27
M  V30 30 1 19 28
M  V30 31 1 19 29
M  V30 32 1 19 30
M  V30 END BOND
M  V30 END CTAB
M  END
>  <ID>
4774543

>  <Stereo Isomer>
1

>  <Energy>
75.87

>  <Error>


$$$$
1891364
Actelion Java MolfileCreator 2.0

  0  0  0  0  0  0              0 V3000
M  V30 BEGIN CTAB
M  V30 COUNTS 47 49 0 0 0
M  V30 BEGIN ATOM
M  V30 1 O -3.1697 0.3166 1.9009 0
M  V30 2 C -3.2488 0.2538 0.683 0
M  V30 3 O -4.3998 0.2859 -0.0333 0
M  V30 4 C -2.075 0.1304 -0.2054 0
M  V30 5 C -5.5896 0.4036 0.7595 0
M  V30 6 C -0.7756 0.0551 0.29 0
M  V30 7 C -2.2105 0.0859 -1.5802 0
M  V30 8 C -6.7811 0.4273 -0.1774 0
M  V30 9 N 0.267 -0.0554 -0.5589 0
M  V30 10 N -0.5347 0.0901 1.6802 0
M  V30 11 N -1.1779 -0.0241 -2.4406 0
M  V30 12 C 0.051 -0.0929 -1.8922 0
M  V30 13 C 0.6338 0.0194 2.4593 0
M  V30 14 N 1.2008 -0.2141 -2.7615 0
M  V30 15 C 1.9226 -0.1263 1.9407 0
M  V30 16 C 0.5052 0.1038 3.8564 0
M  V30 17 N 2.4638 -0.2986 -2.241 0
M  V30 18 C 1.2364 -0.2636 -4.1548 0
M  V30 19 C 3.0425 -0.19 2.7809 0
M  V30 20 C 1.6195 0.041 4.7012 0
M  V30 21 C 3.2765 -0.3996 -3.2935 0
M  V30 22 C 2.5654 -0.3829 -4.5059 0
M  V30 23 C 0.0421 -0.1959 -5.0337 0
M  V30 24 C 2.8995 -0.1195 4.1686 0
M  V30 25 C 4.7409 -0.5112 -3.0919 0
M  V30 26 C 4.1023 -0.1536 5.0622 0
M  V30 27 H -5.5555 1.3323 1.3401 0
M  V30 28 H -5.6675 -0.4537 1.4372 0
M  V30 29 H -3.1822 0.1387 -2.0648 0
M  V30 30 H -7.7163 0.5162 0.382 0
M  V30 31 H -6.7054 1.2673 -0.8758 0
M  V30 32 H -6.8151 -0.4859 -0.7807 0
M  V30 33 H -1.3865 0.1947 2.2337 0
M  V30 34 H 2.097 -0.1926 0.871 0
M  V30 35 H -0.4769 0.2239 4.3075 0
M  V30 36 H 4.0274 -0.2965 2.3314 0
M  V30 37 H 1.4758 0.118 5.7762 0
M  V30 38 H 2.9657 -0.4489 -5.5083 0
M  V30 39 H -0.4954 0.747 -4.8959 0
M  V30 40 H 0.3366 -0.2502 -6.0877 0
M  V30 41 H -0.6353 -1.0338 -4.8428 0
M  V30 42 H 5.2666 -0.587 -4.0492 0
M  V30 43 H 4.9809 -1.4019 -2.5024 0
M  V30 44 H 5.1241 0.3678 -2.564 0
M  V30 45 H 4.8971 -0.7668 4.6244 0
M  V30 46 H 3.854 -0.5908 6.0351 0
M  V30 47 H 4.4826 0.8606 5.2171 0
M  V30 END ATOM
M  V30 BEGIN BOND
M  V30 1 2 1 2
M  V30 2 1 2 3
M  V30 3 1 2 4
M  V30 4 1 3 5
M  V30 5 2 4 6
M  V30 6 1 4 7
M  V30 7 1 5 8
M  V30 8 1 6 9
M  V30 9 1 6 10
M  V30 10 2 7 11
M  V30 11 2 9 12
M  V30 12 1 10 13
M  V30 13 1 12 14
M  V30 14 2 13 15
M  V30 15 1 13 16
M  V30 16 1 14 17
M  V30 17 1 14 18
M  V30 18 1 15 19
M  V30 19 2 16 20
M  V30 20 2 17 21
M  V30 21 2 18 22
M  V30 22 1 18 23
M  V30 23 2 19 24
M  V30 24 1 21 25
M  V30 25 1 24 26
M  V30 26 1 11 12
M  V30 27 1 20 24
M  V30 28 1 21 22
M  V30 29 1 5 27
M  V30 30 1 5 28
M  V30 31 1 7 29
M  V30 32 1 8 30
M  V30 33 1 8 31
M  V30 34 1 8 32
M  V30 35 1 10 33
M  V30 36 1 15 34
M  V30 37 1 16 35
M  V30 38 1 19 36
M  V30 39 1 20 37
M  V30 40 1 22 38
M  V30 41 1 23 39
M  V30 42 1 23 40
M  V30 43 1 23 41
M  V30 44 1 25 42
M  V30 45 1 25 43
M  V30 46 1 25 44
M  V30 47 1 26 45
M  V30 48 1 26 46
M  V30 49 1 26 47
M  V30 END BOND
M  V30 END CTAB
M  END
>  <ID>
1891364

>  <Stereo Isomer>
1

>  <Energy>
72.817

>  <Error>


$$$$
